  # total energy =   -19.22951344 
CRSYTAL
PRIMVEC
     6.7020160000000004    0.0000000000000000    0.0000000000000000
     0.0000000000000000    6.7020160000000004    0.0000000000000000
     0.0000000000000000    0.0000000000000000    6.7020160000000004
PRESSURE
0.336315 1.07855 -0.204924 0.103709 0.005435 -0.786997
PRIMCOORD
4 1
H       0.34824      4.24052      5.09338         1.414811     -2.152330      0.019962
H       6.24237      5.32883      4.89199        -0.866863      1.442768      0.308625
H       5.93112      4.48323      6.23069         0.339438      0.085506     -0.194833
N       0.00292      4.93414      5.71286        -0.887678      0.624514     -0.133363
