#Potential energy DFT, NN (ev/atom):  -2.66569697  -2.66835523
CRSYTAL
PRIMVEC
 15.20000000   0.00000000   0.00000000
  0.00000000  15.20000000   0.00000000
  0.00000000   0.00000000  17.00000000
PRIMCOORD
320 1
Pb    3.75054000   3.85188000   4.22156000   0.10678900  -0.37947100   0.28175700  0.11995181  -0.47201191   0.27104407
Pb    3.72134000   3.81911000   0.08203000   0.23210600  -0.29714800  -0.21954800  0.12697133  -0.39958314  -0.21229949
Pb    3.72023000   0.00172000   4.32834000   0.33029800   0.31231700  -0.12459700  0.24403141   0.22208791  -0.18562615
Pb    3.86106000  15.19834000   0.03304000  -0.19054300  -0.37909300  -0.35095300 -0.08127644  -0.23692805  -0.31437739
Pb   15.08564000   3.89303000   4.20442000   0.53858600  -0.44908500   0.02618300  0.51151444  -0.41725754  -0.05073832
Pb   15.15578000   3.68009000  16.98963000   0.21684800   0.44599700  -0.52516200  0.36618699   0.42209290  -0.42514773
Pb    0.01205000   0.05627000   4.18387000  -0.16388400  -0.20029000   0.44118000 -0.07925624  -0.16601019   0.37685696
Pb    0.03135000   0.01397000  16.88697000  -0.05074200  -0.31227400   0.24786500 -0.10758178  -0.32453667   0.31305572
Pb    3.76223000   3.67216000   8.50508000   0.06973700   0.41366900  -0.17369300  0.01243150   0.51851636  -0.12819540
Pb    3.73978000  15.16897000   8.45421000   0.14873600  -0.12984600   0.27809700  0.18362575  -0.18706967   0.20686422
Pb   15.08661000   3.82494000   8.42945000   0.38175900  -0.61500200   0.86630200  0.44367963  -0.50356689   0.55292288
Pb    0.04969000  15.14636000   8.66409000  -0.57008900   0.20297200  -0.62118500 -0.52190762   0.16443151  -0.69575238
Pb    3.77341000   3.84772000  12.79706000  -0.14524000  -0.75885600  -0.35705600 -0.09086526  -0.66987481  -0.39204671
Pb    3.81521000  15.09757000  12.64759000   0.03219900   0.33816300   0.39733000  0.06397859   0.25038237   0.37045804
Pb    0.06060000   3.54926000  12.78145000  -0.47949600   1.00220800  -0.17385900 -0.37552637   0.98001975  -0.07066624
Pb    0.01990000  15.14077000  12.67711000  -0.48102500  -0.15213200   0.11438800 -0.51064507  -0.17369860   0.14621276
Pb    3.63962000   7.67118000   4.24961000   0.53098400   0.01930600  -0.15736800  0.62130864   0.05010709  -0.16803067
Pb    3.92121000   7.57095000   0.07826000  -0.56032100   0.23782800   0.52589000 -0.65612861   0.18080188   0.36639272
Pb   15.18805000   7.60427000   4.16739000   0.40618800   0.85054300   0.50089800  0.22964251   0.65933254   0.41409704
Pb    0.19159000   7.66379000  16.98836000  -0.50363600  -0.22500200  -0.39912100 -0.47133192  -0.30565046  -0.29933037
Pb    3.69744000   7.56073000   8.48104000   0.37435200   0.01211300  -0.30001200  0.41752257   0.02897779  -0.25280563
Pb   15.14307000   7.55212000   8.52325000   0.15658000   0.07003200  -0.43120000  0.24233808   0.09978143  -0.64182223
Pb    3.85369000   7.61944000  12.70078000  -0.12041400   0.15508500   0.05562200 -0.05757250   0.00510065   0.12123260
Pb   15.15495000   7.53623000  12.68142000  -0.34417000   0.22352200   0.38749500 -0.16146320   0.25871462   0.37473741
Pb    3.68007000  11.44602000   4.24465000   0.53381200  -0.42033200   0.43295900  0.50618537  -0.33472168   0.33439177
Pb    3.80796000  11.36846000   0.05532000   0.42011500   0.47863800  -0.68846800  0.40343458   0.36563700  -0.61622461
Pb   15.13321000  11.42939000   4.21092000  -0.07267300  -0.65381300  -0.02314800 -0.03095468  -0.50591384   0.07157486
Pb    0.07227000  11.42168000  16.99153000  -0.28493600   0.12117400  -0.28704700 -0.20831128   0.08731360  -0.24007143
Pb    3.79671000  11.32783000   8.42899000  -0.30959000   0.36652200  -0.01318400 -0.33982198   0.32615995   0.02547789
Pb   15.04592000  11.35067000   8.50661000   0.77809700   0.25419100  -0.02386600  0.83149965   0.39193857  -0.17632988
Pb    3.81451000  11.31930000  12.73605000  -0.06111000   0.19791200  -0.17777100 -0.06209448   0.18895491  -0.29311546
Pb    0.02294000  11.37413000  12.60927000  -0.32612900  -0.27378900   0.57154900 -0.37818914  -0.32622644   0.39005673
Pb    7.59546000   3.75254000   4.12751000   0.35615600   0.59312400   1.00147400  0.36824870   0.48476834   0.85581805
Pb    7.56605000   3.77124000  16.94107000  -0.00598300   0.03793600   0.31690600  0.03569692   0.05913877   0.12183058
Pb    7.60856000   0.09956000   4.22864000  -0.13082800  -0.18175700  -0.53563400 -0.11007579  -0.23701389  -0.53768745
Pb    7.56196000   0.00737000   0.01567000   0.18651500  -0.26363400   0.20079300  0.19103551  -0.15893272   0.22560482
Pb    7.61802000   3.91206000   8.35971000  -0.37539400  -1.00727600   0.48493600 -0.37303219  -0.94483611   0.40217794
Pb    7.55375000  15.13488000   8.34566000   0.19271800   0.10393200   1.17213200  0.15349641   0.28078966   1.05900334
Pb    7.49765000   3.73785000  12.69267000   0.65898200   0.04265100  -0.04536900  0.64456646   0.16891134   0.07447465
Pb    7.66373000   0.09845000  12.67366000  -0.31010500  -0.82909300   0.05898600 -0.37352149  -0.61968501   0.00647847
Pb    7.55185000   7.68521000   4.42999000   0.00736900  -0.47173700  -1.07004400  0.07451344  -0.39240423  -1.13066886
Pb    7.44440000   7.55729000  16.92830000   0.78891900   0.21205700   0.43735900  0.77823327   0.10578693   0.15411584
Pb    7.63429000   7.54906000   8.49364000  -0.42834300   0.74384400  -0.09067900 -0.45422579   0.66072592  -0.12912088
Pb    7.69267000   7.49820000  12.79580000  -0.94010400   0.41657400  -0.32169400 -0.88094667   0.27070934  -0.29832767
Pb    7.63840000  11.41446000   4.16074000  -0.55015800  -0.07528300   0.23618600 -0.53766891  -0.19182435   0.28537254
Pb    7.69893000  11.34765000  16.99135000  -0.84497200  -0.12837800  -0.25342200 -0.72872533  -0.08233001  -0.33471670
Pb    7.51780000  11.36710000   8.33578000   0.64858200   0.26624200   1.08547400  0.55385644   0.21202825   0.86482970
Pb    7.51713000  11.22432000  12.72128000   0.02532400   0.63103900   0.08914000  0.10708443   0.53257979   0.18724101
Pb   11.46270000   3.61202000   4.20547000  -0.44871900   0.95726700   0.13103400 -0.47647711   0.94791690   0.24715336
Pb   11.45066000   3.80737000   0.01409000   0.09515900   0.29047600  -0.51453500  0.09217618   0.12509731  -0.64133200
Pb   11.36440000   0.02503000   4.22124000  -0.08744700  -0.15398600  -0.59601400 -0.10656941   0.02357736  -0.65407521
Pb   11.38563000  15.12851000  16.88627000  -0.03821200   0.28222200   0.80338100  0.01642007   0.21317304   0.75740173
Pb   11.29781000   3.77696000   8.47337000   0.58103200   0.08200900  -0.16459200  0.49365553   0.05682379  -0.27169687
Pb   11.29441000  15.14327000   8.49555000   0.24963000   0.37677900   0.80393700  0.19501803   0.42485106   0.57246478
Pb   11.43468000   3.81197000  12.78294000   0.13752800  -0.26893100  -0.41995300  0.04791626  -0.17748002  -0.36914419
Pb   11.36786000  15.12434000  12.85663000   0.10084700   0.33625900  -0.85912300  0.07139604   0.32197940  -0.67512477
Pb   11.39698000   7.69389000   4.22906000  -0.30570500  -0.34696000   0.26868300 -0.14405207  -0.43796248   0.32834262
Pb   11.29307000   7.51855000   0.00705000   0.36908700   0.12637500  -0.71368100  0.41484964   0.23867496  -0.79182782
Pb   11.32599000   7.56922000   8.34405000   0.42164000  -0.29501100   0.93675800  0.31296481  -0.23014309   0.77968387
Pb   11.27652000   7.42557000  12.66468000   1.01089000   0.59364300   0.27786800  0.91399351   0.48084851   0.26106916
Pb   11.43557000  11.48457000   4.17914000   0.02094200  -0.55846800   0.00957100 -0.02368233  -0.64056048  -0.00541545
Pb   11.31059000  11.37158000   0.09571000   0.51265400   0.13209600  -0.77709100  0.40502258   0.10850999  -0.77762807
Pb   11.32972000  11.41245000   8.53036000  -0.57491000   0.28610500  -0.08089800 -0.58745545   0.21367172  -0.29462981
Pb   11.46403000  11.38926000  12.96285000   0.00731200  -0.30566400  -1.05426300 -0.14284254  -0.32907771  -1.06601949
Pb    1.90140000   1.85713000   2.23543000   0.24255400   0.02379400  -0.09917100  0.37037423  -0.13563722   0.13756856
Pb    1.89452000   1.89062000  14.94323000   0.45496200  -0.99229600  -0.25247700  0.58907350  -0.73613221  -0.29842212
Pb    1.90203000  13.31361000   2.26902000  -0.58475300   0.83429100  -0.22897800 -0.63768275   0.96194073  -0.34923980
Pb    1.88607000  13.32329000  15.02263000   0.98939700  -0.72706100   0.15121800  0.76806650  -0.62676514  -0.10885092
Pb   13.34040000   1.90703000   2.11015000  -0.94167400  -0.55096500   0.38360100 -0.92713994  -0.51601599   0.45678028
Pb   13.27345000   1.84039000  14.94822000   0.60508100   0.74076900   0.13816100  0.55196083   0.47247078  -0.20061270
Pb   13.30218000  13.37552000   2.25642000  -0.03413700  -0.83624700  -0.57739200 -0.18293630  -0.85042830  -0.45802830
Pb   13.24734000  13.27910000  15.04205000   0.69159600  -0.66518300   1.35720700  0.88044714  -0.45946316   0.88910180
Pb    1.89305000   1.87295000   6.52863000  -0.20832500   0.48504300   0.11581400 -0.27480741   0.46187862  -0.35981832
Pb    1.80073000  13.28573000   6.48873000   0.27655200  -0.11013700   1.18719600  0.09451009  -0.05423336   0.85263295
Pb   13.31837000   1.85071000   6.47028000  -0.08012200   0.27378100   1.09492800 -0.12464107   0.37748509   0.92123710
Pb   13.21649000  13.36054000   6.50225000   0.23141500   0.01752700   1.52865800  0.28162519   0.02313163   1.08371561
Pb    1.90114000   1.85123000  10.68188000   0.46802000   0.95291700   1.36031000  0.40276144   0.96048892   1.14690256
Pb    1.85740000  13.23899000  10.69854000  -0.07804800  -0.85243300  -0.85341100  0.06084978  -0.91390460  -0.68117156
Pb   13.30040000   1.87503000  10.76268000  -0.93955700  -0.43420000   0.37625900 -0.55646440  -0.40618781   0.27359795
Pb   13.14624000  13.22396000  10.70758000   0.31931000   0.96186300   0.90640600  0.20488203   1.05210141   0.84907422
Pb    1.91132000   5.66002000   2.26318000   0.20907300   0.59446800   0.91464800 -0.07234664   0.76992446   0.53169098
Pb    1.94331000   5.71217000  15.01233000  -0.96435300  -0.00786600   0.54024600 -0.90644789   0.14279233   0.41069579
Pb   13.32308000   5.82140000   2.23506000  -0.44794000  -1.52630500  -0.51024300 -0.26896145  -1.39077190  -0.35561944
Pb   13.40668000   5.67477000  15.04821000  -0.65622800   0.61840200  -0.94421500 -0.68855241   0.30412408  -0.77715044
Pb    1.92617000   5.69701000   6.53103000  -0.54395800   0.03941400   0.22648400 -0.57788053  -0.15082738   0.17659969
Pb   13.35379000   5.68888000   6.46657000  -1.20371200   0.17934100   1.39967500 -1.25734077   0.31289666   0.83034386
Pb    1.91127000   5.65168000  10.75368000  -1.22986300  -0.47916000   0.19561700 -1.17645580  -0.68408218   0.13347639
Pb   13.33586000   5.62787000  10.71777000  -0.38779600  -0.42745700  -0.47204400 -0.69179426  -0.39770202  -0.27945055
Pb    1.93036000   9.57448000   2.18558000  -1.02527000  -0.80588900   1.90585900 -1.25187363  -0.90149779   1.60089149
Pb    1.93737000   9.53092000  14.97414000  -0.06547400  -0.28556400   0.81656100  0.15215594  -0.45091747   0.56366324
Pb   13.24430000   9.49546000   2.13799000   1.14770500   0.45554900   1.16758100  1.20124379   0.55262066   1.17536172
Pb   13.29928000   9.51340000  14.99548000   0.43756900  -0.72470100  -0.63584500  0.43685117  -0.75785958  -0.59601706
Pb    1.89700000   9.53901000   6.45658000  -0.47542600  -0.33243900  -0.51723100 -0.30418915  -0.57774608  -0.56241137
Pb   13.26663000   9.55047000   6.53999000   0.92858600  -0.62081700  -1.01591900  0.85114583  -0.67293810  -1.03170769
Pb    1.88050000   9.43080000  10.61804000  -0.35456500   0.54472300   0.83237400 -0.12273695   0.69548880   1.12922774
Pb   13.18911000   9.46623000  10.62573000   0.50336200   0.07644900   1.92191700  0.39880193   0.16105058   1.96081448
Pb    5.70029000   1.90414000   2.28519000   0.27760500  -0.64599500   0.05779400  0.13473135  -0.48799253  -0.17832327
Pb    5.67458000   1.85485000  14.96516000  -0.31541900  -0.10481100   0.13184600 -0.27733361  -0.03902748   0.10631587
Pb    5.66645000  13.29035000   2.31612000   0.21880200   0.26541200  -0.79755800 -0.00015157   0.17790765  -0.71906490
Pb    5.78321000  13.29298000  14.95859000  -1.49216100  -0.98286200   0.61548900 -1.06148998  -1.11029595   0.50655545
Pb    5.72833000   1.88665000   6.49205000  -0.67884000   0.69367300   0.06111600 -0.74494739   0.78746756   0.02027056
Pb    5.63438000  13.30111000   6.45393000  -0.47517900  -0.64587500  -0.27621900 -0.39925519  -0.75478946  -0.18833443
Pb    5.71211000   1.86646000  10.64130000  -0.50288600   0.01242200   0.35746300 -0.38180537   0.16915685   0.56458656
Pb    5.61120000  13.28554000  10.63190000   1.96102300  -0.34585400   0.98257600  1.87428659  -0.39863306   1.16475882
Pb    5.74634000   5.66245000   2.30738000  -0.09533200   1.35067600  -0.84204600 -0.13770930   1.17712782  -1.02267482
Pb    5.61002000   5.63609000  15.07889000   0.33925700   0.28832600   0.05419500  0.45416417   0.65351584  -0.00794242
Pb    5.63300000   5.74174000   6.42240000  -0.08060400  -0.62192000   0.48449900 -0.01642662  -0.52920151   0.41054054
Pb    5.64423000   5.58840000  10.70229000   0.37244600   1.58346800   0.86411400  0.33930343   1.21485245   0.91488569
Pb    5.72892000   9.49702000   2.25445000  -1.08415900  -0.81537300  -0.10264200 -1.23369114  -0.72527524  -0.16098121
Pb    5.65063000   9.48099000  15.01889000   0.63806700   0.43715400   0.61247600  0.54781975  -0.04885895   0.38886275
Pb    5.68212000   9.49939000   6.48060000  -0.05910000  -0.57712000   0.27440000 -0.14442034  -0.27757739   0.17190076
Pb    5.71457000   9.46634000  10.62114000   0.02679900  -0.04593200   1.76179900  0.15353586  -0.29000935   1.65969194
Pb    9.58494000   1.99401000   2.11107000  -1.94709300  -1.31583900   0.77791600 -1.93460380  -1.51996404   0.59611173
Pb    9.54838000   1.88427000  15.01310000  -0.36200700  -0.16965900  -0.02995600 -0.37931738   0.09080709  -0.04888647
Pb    9.46691000  13.32359000   2.21238000  -0.15097600   0.66714100   0.87858700 -0.20867702   0.89342550   0.69371866
Pb    9.43860000  13.24847000  14.97090000   0.04368200   0.15144400   0.35661400  0.05286109  -0.05893850   0.33122765
Pb    9.53317000   1.83500000   6.44088000  -0.42640300   1.21408800   1.65438000 -0.50842142   1.26599924   1.34667271
Pb    9.44289000  13.29718000   6.37779000   0.46731000  -0.22371400   0.66599900  0.48339181  -0.14575949   0.79744192
Pb    9.53367000   1.90918000  10.67536000   0.27936900  -0.08465300   1.03639100 -0.01106337  -0.20465210   0.81310401
Pb    9.40040000  13.28754000  10.84253000  -0.50987400  -0.53722000  -0.59983800 -0.22911283  -0.51843693  -0.20432316
Pb    9.60493000   5.77511000   2.25808000  -1.49906400  -1.24021900   1.49781500 -1.47597258  -1.04972855   1.27800200
Pb    9.47960000   5.62007000  14.97603000   0.86827400   0.99474200   0.10949800  0.69627142   0.78035330  -0.20993514
Pb    9.42330000   5.70963000   6.48210000   1.25590100  -0.38202800  -2.10925900  1.39405934  -0.58195863  -1.71361944
Pb    9.43271000   5.68851000  10.69354000   0.54147300  -0.65796000   1.05878200  0.62827802  -0.61085153   0.97898075
Pb    9.47783000   9.49953000   2.12967000  -0.39404900  -0.53140400   0.55290000 -0.53958637  -0.57544750   0.69208517
Pb    9.51063000   9.40821000  14.92115000  -0.53000200   0.23223200   1.75290500 -0.47366059   0.43467783   1.33515628
Pb    9.54745000   9.52473000   6.40812000  -2.62204000  -0.02095200   0.11302700 -2.25042303   0.07519333  -0.02345995
Pb    9.47198000   9.55505000  10.71670000  -0.25958300  -0.09132300  -0.14052900 -0.28498421  -0.18568156  -0.05921602
Pb    1.78807000   1.78717000   0.46535000   0.23827300   0.24244800   0.24747800  0.18938568   0.14668611   0.31152051
Pb    1.89794000   1.87146000  13.12335000   0.29543700  -0.24224400   0.42774800  0.15388449  -0.34614788   0.33038510
Pb    1.81771000  13.28765000   0.48878000   0.18889700   0.28577200   0.28796000  0.03677260   0.21143753   0.38354347
Pb    2.02265000  13.13372000  13.24597000  -0.36039000   0.55289000  -0.49768500 -0.24137251   0.51410543  -0.55467182
Pb   13.26248000   1.88544000   0.33792000   0.37411600  -0.04976400   0.36903300  0.20251017  -0.00652712   0.35078066
Pb   13.28479000   1.93047000  13.17466000  -0.00721100  -0.34787700  -0.00804900  0.10118248  -0.35628594   0.05333530
Pb   13.33023000  13.46452000   0.49895000  -0.09611500  -0.71836600  -0.01628100 -0.09966706  -0.62958410  -0.24286038
Pb   13.17668000  13.21916000  13.32711000  -0.01410500  -0.16357700  -1.53508400  0.04949899  -0.13858623  -1.09250553
Pb    1.94012000   1.88128000   4.74398000  -0.48083100  -0.05832600   0.19321700 -0.37692614  -0.01014942   0.23521377
Pb    1.88890000  13.30692000   4.74199000  -0.40959900   0.11134800  -0.53592300 -0.35788828   0.11725771  -0.24947774
Pb   13.28361000   1.90969000   4.68511000  -0.06918600  -0.22518600   0.00563800 -0.09981439  -0.19540982   0.16327769
Pb   13.24006000  13.19409000   4.76008000  -0.23850700   0.46224800  -0.72835700 -0.26543995   0.33280791  -0.41783451
Pb    1.87034000   1.91956000   8.95243000   0.04030900  -0.36140100  -1.11017000  0.11909287  -0.32992149  -0.89944514
Pb    1.84800000  13.25794000   8.89312000  -0.02966500  -0.03379400   0.90414600 -0.06516649   0.05348878   0.79532157
Pb   13.23754000   1.85874000   9.00977000   0.19669800   0.15853100  -0.39156000  0.16655067   0.07199016  -0.31489567
Pb   13.19526000  13.27200000   8.93705000  -0.15549100  -0.04717200   0.08986700 -0.02926948  -0.12401949   0.50456040
Pb    1.90065000   5.71011000   0.54308000  -0.40239000  -0.36003800  -0.89150200 -0.49492258  -0.46851922  -0.71768198
Pb    2.05664000   5.76795000  13.26942000  -0.32385000  -0.39153300  -0.45275300 -0.22466262  -0.46227297  -0.31909022
Pb   13.41424000   5.78740000   0.46602000  -0.30840000  -0.15017700  -0.04466400 -0.21321526  -0.10096094   0.19313929
Pb   13.30183000   5.63466000  13.25899000  -0.05348500   0.12221900  -0.07547200 -0.15911300   0.04502858  -0.36534060
Pb    1.84633000   5.67122000   4.76439000  -0.00563700  -0.27227900  -0.53167100 -0.07723788  -0.18796309  -0.44951052
Pb   13.44942000   5.68596000   4.71538000  -0.42296700  -0.04543200  -0.58635700 -0.34493364  -0.08039671  -0.30759057
Pb    1.97260000   5.73880000   8.98464000  -0.34270200   0.03761500  -0.31729100 -0.34873980   0.13596634  -0.13132089
Pb   13.30770000   5.53552000   8.87784000   0.13096700   0.62217500   1.56883900  0.01704963   0.52813905   1.55453509
Pb    1.99869000   9.55278000   0.46087000  -0.58221000  -0.09910700  -0.74030400 -0.74014318  -0.05368880  -0.41347811
Pb    1.89799000   9.48830000  13.22345000   0.13806600   0.16797100  -0.68977500  0.07959158   0.04447016  -0.61533507
Pb   13.15100000   9.36635000   0.41563000   0.51219200   0.26602000  -0.54247200  0.33591766   0.06095373  -0.42318967
Pb   13.35095000   9.62192000  13.17439000  -0.18193100  -0.03445400   0.96264300 -0.18081967  -0.15457667   0.64290125
Pb    1.94383000   9.54316000   4.64472000  -0.32150200   0.03432700   0.66057800 -0.27881350   0.13135907   0.39869886
Pb   13.26202000   9.51823000   4.74274000  -0.23001700  -0.02644400   0.85510200 -0.29280599   0.03119879   0.57075206
Pb    1.88494000   9.48747000   8.85919000   0.20843600  -0.26311500  -0.15481100  0.11189091  -0.24382932  -0.01695694
Pb   13.10251000   9.50556000   8.87087000   0.42116200   0.17485200  -0.68807000  0.40756471   0.12862218  -0.40468734
Pb    5.82061000   1.79385000   0.51351000  -0.25958600   0.47852800  -0.27289200 -0.18786920   0.30694978  -0.34278725
Pb    5.58024000   1.84828000  13.18204000   0.24876600   0.07453200   0.74629700  0.30872022   0.11416345   0.57909777
Pb    5.69059000  13.34268000   0.51312000  -0.17129800  -0.20425600   0.90055700 -0.26763702  -0.27522274   0.73064766
Pb    5.69913000  13.36496000  13.20645000  -0.22734900  -0.14715400  -0.12036800 -0.26499282  -0.17906953  -0.18671580
Pb    5.57085000   1.94269000   4.72327000   0.36248500  -0.29921900  -0.30301700  0.21877183  -0.26052012  -0.15904676
Pb    5.67114000  13.23768000   4.67515000   0.03382500   0.30569100   0.31285300  0.08708197   0.35617448   0.31057210
Pb    5.80650000   1.83504000   8.89355000  -0.46548700   0.34001400  -0.27161600 -0.39996498   0.18430967  -0.22079035
Pb    5.57700000  13.23962000   8.87554000   0.34609900   0.04020900  -0.36253900  0.28853474  -0.01550367  -0.30618303
Pb    5.62266000   5.66433000   0.40331000   0.73783900  -0.21556200   1.24163700  0.76842002  -0.12250364   1.12497662
Pb    5.64961000   5.66072000  13.30559000  -0.44019000  -0.14538200   0.02369700 -0.39541281  -0.24826683  -0.08543134
Pb    5.63126000   5.62508000   4.65051000  -0.04109700   0.24970100   0.40683400 -0.08114212   0.16747469   0.42214708
Pb    5.62934000   5.70253000   8.97460000   0.15482700  -0.02808700  -0.40214600  0.13273660   0.05786152  -0.15655853
Pb    5.69417000   9.44469000   0.44139000   0.17732600   0.26646500   0.74396400  0.08064625   0.22941823   0.82652876
Pb    5.77226000   9.36114000  13.26447000  -0.58000500   0.38741800  -0.14909200 -0.42735088   0.50301844  -0.36765817
Pb    5.72688000   9.39931000   4.73161000  -0.01906500   0.21031700  -0.80881200  0.01902034   0.00057324  -0.53423654
Pb    5.68018000   9.57033000   8.88713000  -0.15173200  -0.45203800  -0.48466100 -0.30340909  -0.34866089  -0.15376405
Pb    9.56431000   1.87930000   0.35334000  -0.22243100   0.44815400  -0.32073300 -0.23832413   0.22604015  -0.15965466
Pb    9.64784000   1.95392000  13.24150000  -0.56254700  -0.32468800   0.06078000 -0.54424425  -0.40753228  -0.17318188
Pb    9.52936000  13.30247000   0.47202000  -0.09163300  -0.22264900  -0.60129100 -0.05142682  -0.30522361  -0.40535024
Pb    9.34583000  13.30596000  13.21832000   0.46021100   0.06588800  -0.00884400  0.48782311   0.09301488   0.22773282
Pb    9.57951000   1.76832000   4.72023000   0.06652600   0.06650300  -1.04290600 -0.09325791   0.03424118  -0.73264500
Pb    9.46480000  13.24943000   4.59318000   0.18430400   0.37442200   0.58125000  0.17503088   0.18309626   0.62365725
Pb    9.45201000   1.99930000   8.93564000   0.09766400  -0.32157400  -0.60609500  0.02027291  -0.15213790  -0.67234148
Pb    9.30683000  13.27399000   9.06094000   0.72610200  -0.13982600  -0.15867400  0.49534695  -0.11281795  -0.38866749
Pb    9.59825000   5.63151000   0.51801000  -0.06921500   0.00779500  -1.01847700 -0.18647887   0.08279227  -0.74762439
Pb    9.57770000   5.77040000  13.18189000  -0.17701700  -0.66982100   0.26495000 -0.01625341  -0.49329850   0.26485344
Pb    9.43700000   5.80946000   4.67353000   0.19444100  -0.07047600   1.17531700  0.16671287   0.04528463   0.84199944
Pb    9.33467000   5.75703000   8.94023000   0.31445000  -0.22434700  -0.89863400  0.19169802  -0.16705716  -0.71950147
Pb    9.47591000   9.53106000   0.33741000   0.23187300  -0.17879500   0.93275000  0.20077178  -0.03614896   1.00398771
Pb    9.39558000   9.33890000  13.19935000   0.32914100   0.27884300  -1.16270300  0.36575354   0.23175789  -1.00135478
Pb    9.33606000   9.36785000   4.61658000   0.63183300   0.37459400   0.57693200  0.46783868   0.33512553   0.84318614
Pb    9.44397000   9.54972000   8.92035000   0.15440000  -0.07782700   0.41916100  0.22029152  -0.15834700   0.48221179
Pb    3.80412000   1.77095000   2.55242000  -0.31163900   0.67870600  -0.02618800 -0.23816263   0.61831636  -0.02127075
Pb    3.76401000   1.84423000  15.44237000   1.19746700  -0.44020200  -0.24724200  1.05648235  -0.25683367  -0.16142426
Pb    3.74164000  13.31483000   2.70933000   0.40734600  -0.00297300  -0.42259800  0.58486354   0.03334027  -0.34800139
Pb    3.76512000  13.34889000  15.46375000   1.10732700   0.06727600  -0.19803600  0.57011772   0.04565109  -0.05724060
Pb   15.13825000   1.79170000   2.55656000   0.28537500   0.24958900  -0.02213200  0.37098095   0.33814252   0.06715508
Pb    0.01674000   1.83047000  15.23767000  -0.61405000   0.09817300   0.34882600 -0.61659433   0.13400164   0.32578064
Pb   15.14939000  13.34225000   2.70923000   0.16519800   0.32078000  -0.14143700  0.07003344   0.33485018  -0.06990823
Pb   15.18973000  13.21108000  15.35324000   0.21340900   0.14136700   0.02000400  0.28293094   0.19882901   0.06907576
Pb    3.76769000   1.95799000   6.82520000   0.00260400  -0.45899100   0.50621600  0.27046511  -0.46484754   0.50102560
Pb    3.77019000  13.17211000   6.77595000  -0.37948400   0.31044900   0.10172200 -0.21256102   0.31717719   0.16812832
Pb   15.18753000   1.71529000   7.00910000  -0.37895100   0.50338400  -0.90580100 -0.36005010   0.33918757  -0.77621200
Pb   15.07030000  13.42196000   6.97850000   0.61477600  -0.22479600  -0.61589000  0.50845894  -0.18305137  -0.54510679
Pb    3.77148000   2.04048000  10.97764000   0.25531400  -0.35447100   0.08048300  0.24821134  -0.35028699   0.07748274
Pb    3.83209000  13.04950000  11.01646000  -1.40112500   0.61354500   0.31528300 -1.44930314   0.73305011   0.36324062
Pb    0.00112000   1.73265000  11.14273000   0.27800300  -0.20810000  -0.10136300  0.20326834  -0.13925245  -0.22775580
Pb   15.06586000  13.31594000  11.12355000   1.41667300   0.27995500  -0.29649700  1.22649902   0.22404489  -0.18973428
Pb    3.78972000   5.67337000   2.56348000  -0.53847800  -0.66815400   0.30761000 -0.34657182  -0.58538943   0.47259554
Pb    3.71401000   5.69171000  15.59393000   1.47095300  -0.77338800  -0.72982700  1.15182483  -0.59172684  -0.95332052
Pb   15.16107000   5.72211000   2.65202000   0.43542400  -0.41942100  -0.07422700  0.48134932  -0.26114343  -0.14435904
Pb    0.06778000   5.54797000  15.36729000   0.46207300   0.39064400   0.32787100  0.55008410   0.54792855   0.32580824
Pb    3.79981000   5.71457000   6.89556000  -0.34071800  -0.26168300  -0.13491400 -0.18715495  -0.18254648  -0.17696448
Pb   15.19026000   5.69570000   6.99394000   0.13970000   0.31288700  -0.57468900  0.25403989   0.21979283  -0.45302880
Pb    3.71919000   5.52985000  11.14091000   1.56173400   0.64104000  -0.09442600  1.63145865   0.58421297  -0.05453197
Pb   15.17276000   5.69932000  11.23883000   0.27186700   0.13200500  -0.66935500  0.31641113   0.02309857  -0.69927534
Pb    3.71265000   9.47157000   2.59034000   1.05444100   0.65891100   0.16889900  1.14633290   0.73037624   0.24357392
Pb    3.78018000   9.42759000  15.48020000   0.74041400   0.38092800  -0.58877500  0.49310310   0.45870328  -0.63422809
Pb   15.19732000   9.48514000   2.61293000  -0.48228000  -0.08177000  -0.51976000 -0.22871269   0.04013479  -0.54880068
Pb    0.06983000   9.55416000  15.38443000  -0.32546700   0.03529700   0.27391600 -0.35221841   0.03707160   0.35084438
Pb    3.76790000   9.51082000   6.75528000  -0.14917000   0.07117000   0.45735900 -0.11830631   0.02926140   0.49947575
Pb    0.03623000   9.47143000   6.77527000  -1.83924500   0.08160100   0.57521500 -1.63706382   0.17892686   0.50913021
Pb    3.78662000   9.52874000  11.11239000  -0.00919800  -0.09579000  -0.47463900 -0.11310211  -0.18320614  -0.41245640
Pb   15.16167000   9.57318000  10.86644000  -0.15790600  -0.71954400   0.26045200 -0.30270491  -0.80338789   0.02138465
Pb    7.63526000   1.93785000   2.70584000  -0.45864400  -0.22369200  -0.54131200 -0.55284936  -0.07644688  -0.41051094
Pb    7.62912000   2.01892000  15.34600000  -0.73484000  -0.45960400  -0.33741900 -0.70393377  -0.51438053  -0.35888832
Pb    7.55097000  13.22265000   2.56416000   0.33614500   0.05708400   0.20817900  0.25771177   0.19895895   0.30702475
Pb    7.61990000  13.22589000  15.54735000  -0.00036900   0.18795500  -0.64107400  0.02949183   0.25426376  -0.56136568
Pb    7.58267000   1.84722000   6.73430000   0.27238500  -0.14113100   0.01157000  0.30725125  -0.18132363   0.06759249
Pb    7.58522000  13.33771000   6.73924000  -0.30163100  -0.04660700  -0.00324400 -0.47161286  -0.08445120   0.02714565
Pb    7.58058000   1.84650000  11.09177000   0.03941100  -0.09492600   0.16590700  0.09186202  -0.09545685   0.34718050
Pb    7.53898000  13.38415000  11.20071000  -0.74573500   0.29213200  -0.30806200 -0.73930478   0.10039614  -0.36136144
Pb    7.61449000   5.58156000   2.67317000  -0.26915200   0.75412000  -0.71524400 -0.22180405   0.75586035  -0.58102133
Pb    7.61309000   5.60592000  15.26629000  -0.69849600   0.05827400   0.33115000 -0.71814985  -0.04785539   0.65561090
Pb    7.51883000   5.70668000   6.80012000   0.22722000   0.51292900   0.16339400  0.12799811   0.44032035   0.12633642
Pb    7.56754000   5.64507000  11.11964000  -0.34262800   0.23087000  -0.00224600 -0.42738424   0.22111090   0.00768710
Pb    7.53615000   9.39939000   2.57717000   1.15470100   0.27029700  -0.11912400  1.11386282   0.36281528  -0.08874709
Pb    7.57228000   9.36007000  15.37791000   0.18323000   0.56402500   0.00454300  0.12402978   0.64469436   0.09622692
Pb    7.55514000   9.54678000   6.91195000   1.05988400  -0.91746100  -0.68216500  0.95590808  -0.84924832  -0.64535915
Pb    7.58832000   9.39072000  11.09932000  -0.19548500  -0.08702400  -0.19340900 -0.03563816   0.15130533  -0.31052733
Pb   11.33170000   1.85143000   2.56304000   1.77958300  -0.05786300   0.26441800  1.53680162   0.12132223   0.21820762
Pb   11.43668000   1.82530000  15.34037000  -0.42906000   0.17236800   0.05094400 -0.43266009   0.10057187  -0.02609983
Pb   11.36319000  13.18036000   2.61588000   0.02335100   0.61058900  -0.12691700  0.13785881   0.75440216  -0.07833752
Pb   11.34976000  13.23434000  15.48972000  -0.10686800  -0.03007200  -0.64169400  0.02858451   0.00143400  -0.67001383
Pb   11.37273000   1.95824000   6.83459000   0.33832100   0.02819900  -0.04585000  0.27648378  -0.16086305   0.02306786
Pb   11.31522000  13.37958000   6.96283000  -0.20633300  -0.78861300  -0.79004500 -0.25856379  -0.76368356  -0.81729508
Pb   11.42426000   2.04152000  11.10661000  -0.86979400  -0.33394200  -0.10418200 -0.73675914  -0.46278692  -0.03023837
Pb   11.32875000  13.13966000  11.26813000  -0.04787700   0.21993700  -0.31924000  0.03040449   0.23418553  -0.30663343
Pb   11.43147000   5.73357000   2.73172000   0.18983500  -0.13898500  -0.33973200  0.20180117  -0.00629625  -0.43888810
Pb   11.51189000   5.71249000  15.45179000  -1.23110400  -0.01702700  -0.07004000 -1.00822700  -0.00713731  -0.10684724
Pb   11.35849000   5.66664000   6.88538000   0.36833400   0.03655500  -0.36721600  0.08370067   0.05035948  -0.18687024
Pb   11.39918000   5.60185000  11.02301000  -0.19175000  -0.04331100   0.09872800 -0.11093984  -0.05338373   0.04083742
Pb   11.37605000   9.47055000   2.57889000  -0.67949100   0.06849900  -0.10640800 -0.63138708   0.20133008  -0.16723376
Pb   11.41592000   9.39146000  15.31432000  -0.15981600   0.40948700  -0.13880900 -0.03442766   0.48085275  -0.13507836
Pb   11.28271000   9.52553000   6.81573000   2.15232700   0.05757900  -0.01401000  2.02734091   0.07584313   0.03496722
Pb   11.33906000   9.64991000  11.07353000   0.36938100  -0.45605400   0.05968900  0.25048325  -0.43664366   0.07416364
Pb    1.84734000   3.71338000   2.62670000  -0.11258800   0.65865700  -0.09675200  0.05475151   0.72504235  -0.08168265
Pb    1.88536000   3.65756000  15.41312000   0.35448600   1.87288500   0.08806700  0.32864459   1.63327761   0.15514770
Pb    1.89775000   0.01999000   2.78467000  -0.34293700  -0.46022900  -0.43020600 -0.29108826  -0.47725093  -0.68146546
Pb    1.88817000  15.18933000  15.37471000  -0.14678400  -0.15621700  -0.21232000 -0.05090493  -0.18013758  -0.22171469
Pb   13.19204000   3.74982000   2.50716000   0.48931400   0.49283600   0.15882100  0.54629172   0.33629396   0.13273092
Pb   13.30510000   3.73104000  15.32274000   0.05043400   0.07602300   0.55061100  0.07391800   0.12795893   0.48696498
Pb   13.15243000  15.19507000   2.56691000   0.17935300   0.74695200   0.52445700  0.38988233   0.71302089   0.48950877
Pb   13.32492000  15.14809000  15.32451000  -0.24173000   0.35669900  -0.10056900 -0.26550825   0.28167960   0.02805691
Pb    1.84493000   3.80899000   6.92332000  -0.01491200  -0.46700600  -0.28530300 -0.00009000  -0.30405664  -0.17739873
Pb    1.97278000  15.16200000   6.90218000  -0.26373400   0.19152300  -0.19489000 -0.31295419   0.14705929  -0.17901373
Pb   13.32228000   3.79320000   6.84638000   0.09097000  -0.62380400  -0.49767400  0.13336524  -0.72803634  -0.44041605
Pb   13.09245000   0.03978000   6.97904000   0.55868900  -0.36234900  -0.89856100  0.57975734  -0.43963089  -0.81272645
Pb    1.77464000   3.75822000  11.08120000  -0.08035600   0.01955500   0.10995600  0.03025255   0.04791669   0.15702748
Pb    2.00233000  15.10256000  10.93818000  -0.11067700   0.27488800   0.60655700 -0.13945562   0.15337687   0.57242646
Pb   13.42464000   3.74154000  11.14457000  -0.04207600   0.67084800  -0.15070000 -0.05607904   0.66197611  -0.13615196
Pb   13.13672000  15.16236000  11.24786000   0.28189200  -0.35594200  -0.31844500  0.24063296  -0.34923204  -0.34355603
Pb    1.92043000   7.58785000   2.68507000  -0.63778300  -0.05750300  -0.62279200 -0.44963747  -0.19494175  -0.49577433
Pb    2.02928000   7.56364000  15.45993000  -1.14039100   0.36366300  -0.37321200 -0.88452112   0.31457513  -0.18395186
Pb   13.26017000   7.60573000   2.65327000   0.09826500   0.79920200  -0.03097200 -0.00252820   0.71638814   0.05568034
Pb   13.48400000   7.60047000  15.20283000   0.01745000   0.26683400   0.47060800 -0.01967194   0.32728388   0.59305281
Pb    1.87392000   7.58852000   6.80842000   0.12995900   0.17898200   0.36410600  0.20772238  -0.08756094   0.28376308
Pb   13.26403000   7.59661000   6.94524000  -0.04610300   0.20442300  -0.48066000  0.06310569   0.22774700  -0.41910405
Pb    1.86047000   7.54941000  11.12041000   0.32311000   0.78505000  -0.34445500  0.27655349   0.76204833  -0.32746831
Pb   13.24546000   7.56958000  11.09217000   0.08719000   0.45315400  -0.47067700  0.03148039   0.44405555  -0.36911556
Pb    1.76763000  11.51842000   2.64420000   0.51903700  -1.69130200  -0.20583100  0.52259282  -1.58197487  -0.08807347
Pb    2.06436000  11.39249000  15.46005000  -0.70534600   0.03815600  -0.21346100 -0.73392196   0.06268701  -0.20815933
Pb   13.28078000  11.36627000   2.61076000  -0.03668600   0.24455600  -0.31241900 -0.01809196   0.20779937  -0.20362508
Pb   13.29343000  11.42052000  15.53656000  -0.36023600  -0.87572200  -0.18212800 -0.36752920  -0.73356313  -0.20135485
Pb    1.79363000  11.42126000   6.84950000  -0.08920300  -0.15217300  -0.02755100 -0.09706500  -0.07534524  -0.05399811
Pb   13.27368000  11.41960000   6.89385000  -0.38558900  -0.05109600  -0.06973300 -0.25542634  -0.23682628  -0.04220300
Pb    1.80304000  11.36740000  11.02077000   0.36183700  -0.21856100   0.09226300  0.29061923  -0.03287893   0.00137542
Pb   13.30400000  11.40116000  11.12642000  -0.21739600  -0.61939800  -0.44185100 -0.41050600  -0.60284144  -0.43390326
Pb    5.69232000   3.81450000   2.64060000  -0.47297900  -0.97671100  -0.17254600 -0.29979337  -0.92804422  -0.24775136
Pb    5.55485000   3.73645000  15.41639000   0.39990100   0.22578000  -0.17032600  0.35853312   0.08204865  -0.19332421
Pb    5.72801000   0.00875000   2.61037000   0.11944200  -0.48644900   0.43570700  0.14483478  -0.40293758   0.55205058
Pb    5.82199000  15.10647000  15.37340000  -0.31793300   2.04499900   0.01827700 -0.39738386   1.87056217  -0.00011613
Pb    5.64847000   3.76654000   6.95816000   0.22076700   0.59547600  -0.58475500  0.13310633   0.46847860  -0.44513684
Pb    5.56738000  15.15872000   6.97885000   0.34257500   0.15350400  -1.10779800  0.32419716   0.09135438  -1.11859771
Pb    5.71989000   3.76965000  11.15257000  -0.07921700  -0.13729000  -0.17935000 -0.13467847  -0.12379699  -0.22582046
Pb    5.52429000   0.02361000  11.05037000   0.22349400  -0.72756800  -0.26382400  0.23442159  -0.73340015  -0.20285327
Pb    5.52734000   7.56226000   2.63667000   0.77974800   0.18788800  -0.19398900  0.91827114   0.05735488  -0.16320795
Pb    5.65548000   7.59401000  15.47161000  -0.12147800  -1.38957200  -0.58291400 -0.06785791  -1.21409693  -0.56515594
Pb    5.62952000   7.61089000   6.90881000   0.33087700  -0.64723700  -0.19831100  0.32004565  -0.51527688  -0.20477275
Pb    5.68619000   7.60369000  11.20983000  -0.40236900  -1.00236700  -1.00884100 -0.39928458  -0.81373458  -0.92303808
Pb    5.63327000  11.32342000   2.74837000   0.01519100   0.62563300  -0.61170700  0.07008981   0.59764276  -0.61772035
Pb    5.68895000  11.38092000  15.35588000  -0.05575500  -0.02759700  -0.04656100 -0.02965324   0.13680392  -0.00015829
Pb    5.66669000  11.33493000   6.87830000  -0.00730700   1.50953500  -0.45219700  0.04351104   1.29380617  -0.43735823
Pb    5.82773000  11.36807000  11.11104000  -0.42803000  -0.26803700  -0.33178200 -0.44413141  -0.16970889  -0.20114355
Pb    9.48152000   3.76619000   2.64236000   0.67884400   0.64922900  -0.17940100  0.80465139   0.71915596   0.03181524
Pb    9.57447000   3.80822000  15.35547000   0.31618700  -0.30673000   0.13373300  0.20659891  -0.29673410   0.25013829
Pb    9.36621000   0.03920000   2.61994000   0.67805000  -0.69531300  -0.29135400  0.65300611  -0.77657502  -0.32430974
Pb    9.51134000  15.16609000  15.36619000  -0.32001500   0.18321900  -0.37000700 -0.28867624  -0.00682387  -0.30226450
Pb    9.43409000   3.82340000   6.78694000  -0.06157100  -0.42518400   0.07415200  0.04119260  -0.29112909   0.13587129
Pb    9.47436000   0.01212000   7.02542000   0.07645200  -0.57492800  -1.33682100  0.09903508  -0.53219889  -1.20082171
Pb    9.37822000   3.74696000  11.06962000   0.17921000   0.93727800   0.16395600  0.24377597   0.90967746   0.12383249
Pb    9.54765000  15.16232000  11.12324000   0.23851600   1.21149700   0.26045500  0.15184199   1.16275586   0.27817028
Pb    9.43972000   7.58381000   2.51496000   0.33418400   1.01514500  -0.05207100  0.42584427   0.98954498  -0.09253481
Pb    9.47388000   7.56631000  15.34167000   0.22027500  -1.07872200   0.27999700  0.16551091  -1.03174415   0.42364582
Pb    9.55959000   7.60796000   6.86856000  -1.10589900   0.34603800  -0.28897700 -1.03527316   0.20764940  -0.37538047
Pb    9.48942000   7.55197000  11.12184000   0.14072600   0.27439800  -0.43946000  0.10930714   0.29448233  -0.49182007
Pb    9.42301000  11.38014000   2.53053000   0.12317400  -0.61110200  -0.11635000  0.24172973  -0.68582281  -0.12133597
Pb    9.46448000  11.34412000  15.28732000   0.26930100  -0.12918800   0.18023100  0.24951017   0.08060088   0.08461203
Pb    9.47846000  11.43068000   6.81731000  -0.00491500   0.12284500  -0.44576000  0.05786842  -0.03129703  -0.39930895
Pb    9.31732000  11.38514000  11.20923000   0.30479300  -0.55605500  -0.22592500  0.20487349  -0.22096213  -0.14452129
