# total energy = -399033.49862911
CRSYTAL
PRIMVEC
 11.70600000   0.00000000   0.00000000
  0.00000000  11.70600000   0.00000000
  0.00000000   0.00000000  12.46800000
PRIMCOORD
135 1
Pb    3.89438720   3.89438720   4.15139515   0.00878245   0.00935624  -0.01850681
Pb    3.89437549   3.89438720   8.30740346   0.00866790   0.00904078  -0.01861646
Pb    3.89437549   3.89437549  12.46337437   0.00817091   0.00891272  -0.01934110
Pb    3.89684546   7.79571605   4.14927559  -0.01063329   0.00539887   0.00167887
Pb    3.89682205   7.79572776   8.30527144  -0.01074745   0.00593292   0.00167471
Pb    3.89683375   7.79566923  12.46122988  -0.01149461   0.00613621   0.00100260
Pb    3.89560462  11.68748111   4.15069694  -0.00430229  -0.02870843   0.01232419
Pb    3.89563974  11.68748111   8.30664292  -0.00429196  -0.02920810   0.01290189
Pb    3.89554609  11.68709481  12.46267616  -0.00208554  -0.02668486   0.00962817
Pb    7.79570435   3.89686887   4.14923819   0.00641244  -0.01079488   0.00203046
Pb    7.79570435   3.89683375   8.30527144   0.00576388  -0.01120474   0.00069705
Pb    7.79568094   3.89684546  12.46124234   0.00625522  -0.01118761   0.00093549
Pb    7.79136142   7.79138483   4.14253040  -0.01664568  -0.01760472  -0.03802816
Pb    7.79134972   7.79133801   8.29847638  -0.01585657  -0.01630999  -0.03807249
Pb    7.79127948   7.79127948  12.45432260  -0.01573174  -0.01669354  -0.03512584
Pb    7.79215743  11.69336923   4.15099618   0.00769101  -0.01473300  -0.00992506
Pb    7.79222767  11.69333411   8.30695462   0.00785813  -0.01441470  -0.00926932
Pb    7.79213402  11.69346287  12.46287565   0.00646612  -0.01638144  -0.01152738
Pb   11.68763329   3.89561633   4.15064707  -0.02863154  -0.00551239   0.01101875
Pb   11.68712993   3.89560462   8.30676760  -0.02674930  -0.00374142   0.01010455
Pb   11.68723528   3.89559292  12.46265123  -0.02719018  -0.00340840   0.01051666
Pb   11.69336923   7.79220425   4.15097124  -0.01496273   0.00749167  -0.00989276
Pb   11.69332240   7.79228620   8.30697955  -0.01462160   0.00855897  -0.00831151
Pb   11.69346287   7.79213402  12.46286318  -0.01639343   0.00623898  -0.01136357
Pb   11.69290099  11.69285416   4.15337756   0.02077082   0.02182698  -0.04237911
Pb   11.69281904  11.69287757   8.30939834   0.02049459   0.02052111  -0.04169821
Pb   11.69281904  11.69281904  12.46535678   0.02079054   0.02111462  -0.04249880
Ti    1.94099527   1.94092504   2.22970231   0.00808625   0.00932547   0.03507258
Ti    1.94098357   1.94096015   6.38584777   0.00850180   0.01101564   0.04085262
Ti    1.94098357   1.94096015  10.54169400   0.00882861   0.00969380   0.03740162
Ti    1.94161569   5.84327231   2.22824356   0.01023057  -0.01548662   0.03156519
Ti    1.94158057   5.84322549   6.38447629   0.00967790  -0.01686049   0.02927721
Ti    1.94155716   5.84320208  10.54017290   0.01026109  -0.01588637   0.03371691
Ti    1.94093674   9.74437876   2.22876721  -0.03487511   0.00312261   0.03394119
Ti    1.94093674   9.74440217   6.38483786  -0.03368367   0.00393893   0.03226802
Ti    1.94090162   9.74440217  10.54063422  -0.03425087   0.00299987   0.03477383
Ti    5.84323720   1.94159228   2.22820615  -0.01485112   0.00982267   0.03338190
Ti    5.84320208   1.94158057   6.38432668  -0.01428196   0.00928386   0.03323560
Ti    5.84316696   1.94160398  10.54026018  -0.01682088   0.00813925   0.03356356
Ti    5.84264019   5.84265190   2.22674740  -0.01063065  -0.00902863   0.02502894
Ti    5.84265190   5.84260507   6.38291779  -0.01192912  -0.01155127   0.02138673
Ti    5.84259337   5.84265190  10.53875155  -0.01298413  -0.01274186   0.02258383
Ti    5.84444291   9.74552594   2.22722118   0.00726628  -0.00587507   0.01874304
Ti    5.84444291   9.74547912   6.38334170   0.00654062  -0.00433144   0.01792043
Ti    5.84445462   9.74544400  10.53922534   0.00589173  -0.00184961   0.01828090
Ti    9.74437876   1.94090162   2.22874228   0.00495530  -0.03518849   0.03674266
Ti    9.74439046   1.94093674   6.38472565   0.00329794  -0.03398357   0.03466077
Ti    9.74439046   1.94091333  10.54069656   0.00380951  -0.03550254   0.03691658
Ti    9.74556106   5.84446633   2.22715884  -0.00526536   0.00691469   0.02438999
Ti    9.74557277   5.84448974   6.38322949  -0.00561780   0.00563484   0.02218302
Ti    9.74543230   5.84444291  10.53915053  -0.00181165   0.00706201   0.02335496
Ti    9.74449582   9.74454264   2.22793186   0.02855347   0.02867315   0.01993402
Ti    9.74454264   9.74451923   6.38397757   0.02594539   0.02770965   0.02022997
Ti    9.74448411   9.74446070  10.53991108   0.02946958   0.03039262   0.01740313
 O    1.94127622   1.94126451   0.43662936  -0.00431869  -0.00395457   0.01049383
 O    1.94129963   1.94129963   4.59277482  -0.00398564  -0.00361408   0.00837327
 O    1.94122939   1.94125280   8.74864598  -0.00377091  -0.00389506   0.00692035
 O    1.94126451   5.84371714   0.43492124  -0.00608350   0.00319223  -0.00056019
 O    1.94119427   5.84367032   4.59110411  -0.00601240   0.00293195  -0.00065735
 O    1.94118257   5.84371714   8.74692540  -0.00565435   0.00298631  -0.00569150
 O    1.94106551   9.74474164   0.43514567   0.00034933   0.00714532  -0.00413436
 O    1.94103039   9.74475335   4.59124126   0.00046821   0.00701866  -0.00634626
 O    1.94098357   9.74471823   8.74711242   0.00071643   0.00720848  -0.00724235
 O    5.84369373   1.94121769   0.43490878   0.00357230  -0.00540256  -0.00058131
 O    5.84371714   1.94115916   4.59101683   0.00298801  -0.00520603  -0.00174951
 O    5.84371714   1.94119427   8.74700021   0.00313647  -0.00544447  -0.00481385
 O    5.84392785   5.84400979   0.43317572   0.00360570   0.00309890  -0.00482261
 O    5.84398638   5.84397467   4.58933365   0.00329845   0.00310077  -0.00560088
 O    5.84398638   5.84396297   8.74519235   0.00361395   0.00324392  -0.00533660
 O    5.84360008   9.74423828   0.43343755  -0.00095772   0.01029845  -0.00870760
 O    5.84369373   9.74430852   4.58958301  -0.00137361   0.00996901  -0.01014374
 O    5.84364691   9.74429681   8.74550405  -0.00087242   0.00977111  -0.00994873
 O    9.74477676   1.94100698   0.43515814   0.00698287   0.00068948  -0.00480161
 O    9.74472994   1.94099527   4.59116645   0.00715050   0.00096112  -0.00539381
 O    9.74477676   1.94101868   8.74718723   0.00695970   0.00119812  -0.00744322
 O    9.74428511   5.84368202   0.43341262   0.01036318  -0.00166710  -0.00780539
 O    9.74427340   5.84367032   4.58953314   0.01041414  -0.00146083  -0.01060502
 O    9.74428511   5.84365861   8.74547911   0.00977506  -0.00155531  -0.01045048
 O    9.74484700   9.74482358   0.43450980   0.00814099   0.00838853  -0.00821248
 O    9.74480017   9.74483529   4.59054305   0.00848042   0.00827135  -0.00747344
 O    9.74488211   9.74482358   8.74643915   0.00760728   0.00792899  -0.00526987
 O    3.89333366   1.94122939   2.56359535  -0.00171946  -0.00558499   0.00209952
 O    3.89334536   1.94122939   6.71965354  -0.00257250  -0.00578734   0.00143873
 O    3.89329854   1.94118257  10.87551223  -0.00154290  -0.00508260   0.00247933
 O    3.89339219   5.84419709   2.56186230  -0.00787016   0.00635608  -0.00824325
 O    3.89340389   5.84418538   6.71794542  -0.00897312   0.00645876  -0.00880595
 O    3.89336878   5.84422050  10.87372931  -0.00675450   0.00613136  -0.00795279
 O    3.89359119   9.74389881   2.56175009  -0.00705551   0.00319827  -0.01118663
 O    3.89356778   9.74389881   6.71778334  -0.00598753   0.00304581  -0.01176246
 O    3.89355607   9.74386369  10.87361710  -0.00577778   0.00280261  -0.01104518
 O    7.79400698   1.94148692   2.56317144   0.01019950  -0.00264539  -0.00443354
 O    7.79401868   1.94147522   6.71920469   0.00997402  -0.00259426  -0.00403817
 O    7.79401868   1.94149863  10.87512572   0.01069283  -0.00248974  -0.00336552
 O    7.79412404   5.84393956   2.56096460   0.01352940  -0.00150019  -0.01449069
 O    7.79414745   5.84392785   6.71707266   0.01329181  -0.00130990  -0.01475816
 O    7.79412404   5.84393956  10.87293136   0.01306310  -0.00166688  -0.01424643
 O    7.79381968   9.74434364   2.56178749   0.00664416   0.00833578  -0.01407255
 O    7.79385480   9.74436705   6.71784568   0.00594788   0.00774771  -0.01456210
 O    7.79386651   9.74434364  10.87367944   0.00558537   0.00798186  -0.01371119
 O   11.69492612   1.94140498   2.56368263  -0.00437675  -0.00292166   0.00099351
 O   11.69485589   1.94140498   6.71969094  -0.00337058  -0.00322522   0.00098807
 O   11.69489101   1.94139328  10.87563691  -0.00503878  -0.00321463   0.00181203
 O   11.69527730   5.84430244   2.56143839  -0.00669092   0.00495853  -0.00752372
 O   11.69520707   5.84429074   6.71755891  -0.00543393   0.00524211  -0.00823569
 O   11.69525389   5.84430244  10.87336774  -0.00775472   0.00471227  -0.00715318
 O   11.69545289   9.74385199   2.56222387   0.00303557   0.00348678  -0.00541684
 O   11.69542948   9.74387540   6.71819478   0.00267786   0.00319908  -0.00588871
 O   11.69544119   9.74382857  10.87411582   0.00222988   0.00332472  -0.00437786
 O    1.94126451   3.89333366   2.56355795  -0.00610055  -0.00252880   0.00262210
 O    1.94118257   3.89332195   6.71972834  -0.00558924  -0.00229555   0.00144825
 O    1.94120598   3.89332195  10.87549976  -0.00564878  -0.00238816   0.00291643
 O    1.94153375   7.79400698   2.56319638  -0.00325599   0.01062555  -0.00385919
 O    1.94147522   7.79404210   6.71925456  -0.00295120   0.00936580  -0.00421133
 O    1.94148692   7.79399527  10.87506338  -0.00307684   0.01140824  -0.00321323
 O    1.94145181  11.69489101   2.56368263  -0.00331685  -0.00410375   0.00129116
 O    1.94139328  11.69489101   6.71975328  -0.00307055  -0.00287508   0.00065442
 O    1.94139328  11.69487930  10.87557457  -0.00374669  -0.00489882   0.00222827
 O    5.84418538   3.89339219   2.56182490   0.00660047  -0.00857350  -0.00819875
 O    5.84422050   3.89336878   6.71789555   0.00646157  -0.00869391  -0.00856539
 O    5.84418538   3.89339219  10.87379165   0.00665466  -0.00743782  -0.00795457
 O    5.84391614   7.79414745   2.56101448  -0.00112939   0.01175690  -0.01405151
 O    5.84393956   7.79413574   6.71706019  -0.00120284   0.01224547  -0.01457430
 O    5.84392785   7.79412404  10.87293136  -0.00100503   0.01230463  -0.01425200
 O    5.84429074  11.69521877   2.56143839   0.00505442  -0.00411727  -0.00741734
 O    5.84432585  11.69524219   6.71754644   0.00473072  -0.00469552  -0.00781113
 O    5.84427903  11.69523048  10.87341761   0.00543219  -0.00608937  -0.00723151
 O    9.74391052   3.89356778   2.56170022   0.00330967  -0.00550903  -0.01167865
 O    9.74388710   3.89355607   6.71774593   0.00263795  -0.00549377  -0.01191267
 O    9.74391052   3.89355607  10.87364203   0.00277422  -0.00490154  -0.01136485
 O    9.74434364   7.79386651   2.56179996   0.00835529   0.00463041  -0.01457264
 O    9.74434364   7.79386651   6.71778334   0.00773194   0.00490230  -0.01494607
 O    9.74435534   7.79385480  10.87366697   0.00786107   0.00482728  -0.01406758
 O    9.74385199  11.69542948   2.56226128   0.00348045   0.00342651  -0.00597376
 O    9.74385199  11.69544119   6.71820725   0.00319976   0.00317829  -0.00605694
 O    9.74386369  11.69542948  10.87409088   0.00316367   0.00238425  -0.00454885
