# total energy = -399031.25641088
CRSYTAL
PRIMVEC
 11.70600000   0.00000000   0.00000000
  0.00000000  11.70600000   0.00000000
  0.00000000   0.00000000  12.46800000
PRIMCOORD
135 1
Pb    3.88048047   3.88841714   4.13198248   0.02334549   0.18172403   0.12445850
Pb    3.91667542   3.89357948   8.32027044   0.25922130   0.96990919   0.17643295
Pb    3.89888230   3.89535880  12.46629188  -0.26189349   0.10337791   0.18735009
Pb    3.88911950   7.80350054   4.14835296  -0.08411303  -0.39291446   0.11353374
Pb    3.90661997   7.78376423   8.28774143  -0.54274352  -0.63590469  -0.16175875
Pb    3.90427877   7.80085499  12.46571836  -0.18771932  -0.26376250   0.20822894
Pb    3.90066161  11.69359164   4.12876573  -0.72072192  -0.02110724   0.73672460
Pb    3.90889093  11.69554654   8.31265249  -0.52010225  -0.17217724  -0.25771772
Pb    3.90112985   0.00405028  12.46548146   0.22263287  -0.07916453   0.24009726
Pb    7.79573947   3.87397193   4.13874013   0.04222210  -0.24202717   0.03673307
Pb    7.78486459   3.90251116   8.29881301   0.04947355   0.08362579   1.11263526
Pb    7.79312903   3.90254628  12.44934787   0.26107508  -0.45419969   0.17472000
Pb    7.79303538   7.77480914   4.14194441   0.32186166   0.10629752   0.07557877
Pb    7.78886804   7.79825626   8.30295239  -0.01889564  -0.49864480   1.12219728
Pb    7.78932458   7.80280989  12.45437248   0.31872888   0.19047145   0.01616255
Pb    7.78669073  11.69819210   4.15613299   0.22172311   0.37826691   0.23402584
Pb    7.81076997  11.68597103   8.30135648   0.78324047   0.38140349   0.13249029
Pb    7.76760995  11.69160162   0.00877747  -0.42439070   0.09125409   0.46253600
Pb   11.66851739   3.89411796   4.14927559   0.17547370   0.32418745  -0.26724167
Pb   11.69729074   3.89490226   8.30624394  -0.60624416  -0.10198852   0.46679551
Pb   11.69932758   3.87710914  12.46222732  -0.37951926  -0.32962699   0.32681776
Pb    0.00204855   7.80519791   4.14306653  -0.27805223  -0.83043771   0.16135145
Pb   11.70154001   7.78824763   8.30128168   0.42654901   0.19058565   0.64788385
Pb   11.69914028   7.79974292  12.46069375  -0.21019311   0.53322338  -0.21641680
Pb   11.69438765  11.70331933   4.15780370   0.30129875   0.43243772   0.36474228
Pb   11.70396316   0.01170600   8.30887469  -0.33243621  -0.14727107   0.24343559
Pb   11.68677875  11.70518058   0.01607125   0.08710496  -0.29785383  -0.59107892
Ti    1.95514783   1.92062683   2.20960390  -1.10123468   0.32975260   1.10386881
Ti    1.93699182   1.96693577   6.41772845  -0.14428675  -0.51716741  -2.03488281
Ti    1.95062931   1.91362664  10.52602172  -0.53268285   0.55458946   1.39962524
Ti    1.93000334   5.82885052   2.19348277  -0.83567170  -0.72659921  -0.89463494
Ti    1.94063239   5.80196184   6.38021224   0.22607398   1.01765077   1.76557419
Ti    1.87094657   5.83132049  10.55189282   2.35546547  -0.01954276   1.25970459
Ti    1.93548175   9.70395794   2.24436468  -0.00434326   0.97478536   0.26651843
Ti    1.94265752   9.76447796   6.36756968  -0.45522745  -0.62970764  -0.14638415
Ti    1.96423168   9.74725843  10.55600726  -1.88103024  -0.47003868  -0.42331345
Ti    5.80650377   1.91705650   2.25980006   1.48307593   1.54806111  -1.64322832
Ti    5.82513972   1.94646197   6.39730586   0.88005591   0.60883260  -2.25704367
Ti    5.84431415   1.94213075  10.52208184  -0.30652512   0.14514322   2.34915804
Ti    5.83654136   5.85936806   2.23175953  -0.31799802  -1.48512765  -1.04715903
Ti    5.90284415   5.85336289   6.37303067  -2.36897867  -0.37608576   0.71840374
Ti    5.84273384   5.82485878  10.60164014  -0.42431077  -0.33064333  -3.66675243
Ti    5.85888812   9.74168638   2.27607080   0.01100850   0.33714870  -3.80615539
Ti    5.88474667   9.74019971   6.41639437  -1.31328919  -0.09530044  -1.31004602
Ti    5.83899962   9.72597692  10.52946289  -0.07739449   0.38340573   1.13349127
Ti    9.73600897   1.94132304   2.25807948  -0.16860290   0.81725568  -1.16887302
Ti    9.71628436   1.96519157   6.38303000   0.47524602  -1.06234330   0.40957186
Ti    9.72868101   1.88902063  10.56838799   0.40595184   2.14259256  -1.91249506
Ti    9.68773342   5.86222433   2.21103772   3.11552794  -0.80833696   1.05004058
Ti    9.73216940   5.86291498   6.40117094   1.21458571  -1.06967850  -1.62748829
Ti    9.75835572   5.85297659  10.56696664  -0.75760726  -0.80959692  -1.95073553
Ti    9.76555491   9.77213368   2.25443882  -0.60644210  -0.53139624  -2.45250930
Ti    9.74174491   9.70960023   6.41276618   1.09673155   1.59552100   0.33296151
Ti    9.69603298   9.77627761  10.56341326   2.25378528  -1.32349452  -1.04342863
 O    1.95068784   1.92695978   0.43488384  -0.44115469  -0.54894056  -0.39325324
 O    1.94173275   1.95418793   4.59604144   0.42511014  -0.08461930   0.84301450
 O    1.95170626   1.89693389   8.75691227   0.40630966   0.08494285  -1.57536159
 O    1.94261070   5.75485690   0.39320332  -0.38575436   0.80250535   0.95223925
 O    1.82949562   5.82997430   4.63270982   0.82726686   0.42384256  -2.65605620
 O    1.94399201   5.81350396   8.78424212   0.18156796  -0.18880038  -0.95400929
 O    1.91181221   9.76923059   0.47121559  -0.26707038   0.20274753  -0.51927623
 O    1.93771759   9.80686538   4.54683024  -0.18910490  -1.06850609   0.92053842
 O    1.88938352   9.68877526   8.77328275   0.81755639   0.49747620  -0.60892015
 O    5.85546997   1.91715015   0.44285089  -0.03061216   0.12533401   0.30683726
 O    5.89402953   2.00098852   4.53073405  -0.82684815  -0.42104476   2.69440325
 O    5.81706258   1.94955236   8.76573961  -0.13222764  -0.28912164  -2.11767116
 O    5.81774153   5.81960278   0.41751592   1.03508851   0.43775926   0.46074312
 O    5.83843774   5.90160331   4.56527041   0.19862886   0.01253492  -0.15852700
 O    5.84212513   5.78574903   8.68477242  -0.37544626   0.87357338   3.55294842
 O    5.80780313   9.77630102   0.38067298   0.59692956  -0.22540403   3.23457355
 O    5.90893127   9.79939696   4.59081734  -0.54175382  -0.65684063  -0.16031227
 O    5.88653769   9.68762807   8.72484457  -0.58680798   0.35428192   0.37356964
 O    9.71535958   1.98049132   0.43545737  -0.01015203  -1.06989167   0.62006950
 O    9.74684872   1.88248868   4.58318693   0.01944759   0.39169256   0.09308123
 O    9.76069692   1.92315533   8.73976877  -0.41572703   0.07179508   1.18852236
 O    9.78964586   5.86241162   0.43387393  -0.44240704   0.19060087  -1.24853621
 O    9.68079176   5.79009196   4.55646800   0.44813207   0.36533610   2.91535744
 O    9.83304000   5.82426177   8.72554278  -0.73265922  -0.07215289   1.15088714
 O    9.74495235   9.73362094   0.38857769   0.01677160   0.15176659   2.33472366
 O    9.74306768   9.78602870   4.63379454  -0.32857638  -0.18770029  -0.83979798
 O    9.69112816   9.77889975   8.74870832  -0.16842019  -0.26271950  -0.24798060
 O    3.88947068   1.94223611   2.55883258  -0.08474872   0.01413747   0.21882253
 O    3.92630946   1.95562777   6.69024152   0.11379259  -0.15376502   0.40115180
 O    3.85737283   1.92589453  10.89614677   0.92994056  -0.15249364  -0.42200020
 O    3.92409703   5.89079867   2.48901178  -1.12276826  -0.02511552   0.85728901
 O    3.88168619   5.75609773   6.69143845   0.19888009   1.02376406  -0.15036579
 O    3.91625401   5.81632510  10.97953276  -0.25075556   0.68803520  -1.19773418
 O    3.85964379   9.65570581   2.56870723   1.39496984   1.00984737   0.16494482
 O    3.83270828   9.72065069   6.65208944   2.08485502  -0.47404316   0.62093739
 O    3.84612336   9.76802488  10.95180392   2.05903148  -0.49990857  -1.17233316
 O    7.78456024   1.96617488   2.58153680   0.25149022  -0.18282793  -0.14928473
 O    7.76215495   1.96591735   6.70025333  -0.29877882  -0.65846222   0.12530355
 O    7.76152283   2.01895723  10.83663701  -0.27414673  -1.09025283   0.17755587
 O    7.87624163   5.75226987   2.55983002  -3.63398576   1.06162768  -0.18851870
 O    7.77393119   5.88798923   6.68493016   1.81918545  -0.06595585   0.09558593
 O    7.81219810   5.80226620  10.75664232  -0.61459570   0.06987658   1.13801724
 O    7.80579492   9.80123480   2.53136557  -0.81070082  -0.88634430   0.21147592
 O    7.77890624   9.68748760   6.70537768   0.90710896   0.41405596   0.11055703
 O    7.81527678   9.73023791  10.86934057  -2.15233729   0.47993568   0.08895494
 O    0.01224448   1.94416760   2.59016466  -0.22005204  -0.58311945  -0.49363159
 O    0.06441812   1.95201062   6.76577267  -1.76232722  -0.26997476  -0.50618555
 O   11.62910329   1.95211597  10.85001517   1.65839736  -0.53528652   0.44764864
 O   11.64615893   5.81782347   2.61064958   1.36565190   0.47090657  -0.45271133
 O   11.68171005   5.79505530   6.77090948  -0.74788156  -0.20778358  -0.74360682
 O    0.00827614   5.85144310  10.87669669  -0.68699221  -0.00119906   0.09473326
 O   11.66886857   9.77033096   2.57936737   0.31987845  -0.23932834  -0.16188436
 O   11.66766285   9.73909935   6.73151060   0.38434975   0.39961015  -0.24446336
 O   11.68032874   9.69128034  10.85644866  -0.27130324   0.44271917   0.52157918
 O    1.93740153   3.92516227   2.46756682   0.41764171  -1.05722732   1.10425707
 O    1.91444606   3.87844363   6.62456010   0.50782236  -0.21638254   1.14869838
 O    1.94915435   3.84261156  10.88644667  -0.34640620   0.82154183  -0.43181345
 O    1.91781739   7.75831538   2.45297926  -0.32890755   0.82418738   1.08890151
 O    1.91027873   7.75504941   6.78134520   0.25796133   0.60616422  -0.81272970
 O    1.96465310   7.80619292  10.88259406  -0.05773373  -1.11033992   0.29150834
 O    1.95004401  11.70055671   2.65400082   0.18117970  -0.22654219  -1.15330048
 O    2.00968608  11.66084996   6.71499050  -0.47808570   0.61708898   0.19653146
 O    1.91285405  11.68619345  10.85501484  -0.18406886   0.23240806   0.37971720
 O    5.82715315   3.93065239   2.53410853  -0.00882355  -0.13700104   0.41954118
 O    5.86172097   3.94225303   6.80091996  -0.00312136  -1.78418815  -1.43396781
 O    5.80402210   3.90193757  10.86941538   0.13105523  -0.70275507  -0.07726507
 O    5.83156631   7.81108603   2.49843758   1.04989974   0.13121510   0.75368652
 O    5.87572135   7.79728466   6.76728130  -0.83384075  -0.02559895  -0.79191937
 O    5.92665415   7.79335144  10.91065952  -1.01261852   0.26134915  -0.60745844
 O    5.89805639   0.02019285   2.45370240  -0.89922562  -1.59507564   1.17225703
 O    5.84536769  11.65925794   6.70164974  -0.13841326   1.06696063   0.23544187
 O    5.77405474  11.67322320  10.87089907   0.91103730   0.18317051  -0.67120269
 O    9.77748332   3.84030548   2.55491762  -0.26275757   0.72649644   0.08615333
 O    9.66049356   3.82504085   6.76735610   0.94439398   2.36364191  -0.71845703
 O    9.73716786   3.87379634  10.95423518   0.19420566   1.02119084  -0.63570294
 O    9.72617593   7.79245008   2.61943952  -0.10280312   0.84327335  -0.37298343
 O    9.84334128   7.78365887   6.67646438  -1.25555546  -0.27048103  -0.19141547
 O    9.66761081   7.77555832  10.83827032   0.57605452  -0.17838570   0.40577294
 O    9.68635211  11.68528038   2.55191284   0.69091294  -0.13876346  -0.05527090
 O    9.75340408   0.06612719   6.76189512  -0.49379908  -2.08355318  -0.24713555
 O    9.72312066  11.68705969  10.79117868  -0.25905000   0.16913201   1.09000540
