# total energy = -399030.29040667
CRSYTAL
PRIMVEC
 11.70600000   0.00000000   0.00000000
  0.00000000  11.70600000   0.00000000
  0.00000000   0.00000000  12.46800000
PRIMCOORD
135 1
Pb    3.86602356   3.88288020   4.11217082  -0.09100526   0.60359927   0.27480346
Pb    3.94087172   3.89581533   8.33433434   0.24720429   0.55435279   0.31640971
Pb    3.90278040   3.89668157   0.00201982  -0.28292962   0.06648488   0.26286072
Pb    3.88098383   7.81020808   4.14776696   0.36266962  -0.79631462   0.05338937
Pb    3.91503658   7.76934244   8.26890228  -0.85273312  -0.24200084   0.00927894
Pb    3.91154819   7.80538521   0.00314194   0.05854316  -0.42155684   0.39698680
Pb    3.90368176  11.69973729   4.10838055  -0.60020480  -0.48379241   1.21741389
Pb    3.92120564  11.70349492   8.31801373  -0.13492770   0.12560265  -0.51722284
Pb    3.90767351   0.02780175   0.00125927   0.31842440  -0.49522083   0.36766379
Pb    7.79579800   3.84927227   4.12796778  -0.27373936  -0.01297136   0.41096551
Pb    7.77367366   3.90862169   8.29579576   0.08762142  -0.20458004   1.49885023
Pb    7.79130289   3.90709991  12.43752821   0.33328631  -0.30025315   0.31887487
Pb    7.79564582   7.75791738   4.14159530  -0.10138022   0.67288273   0.25785591
Pb    7.78626931   7.80388684   8.31136829   0.17364670  -0.38169925   1.39488070
Pb    7.78825933   7.81546408  12.45458443   0.24597703  -0.05702150   0.24739228
Pb    7.78173909  11.70430263   4.16229218   0.31654804  -0.22152049   0.29846546
Pb    7.83246119  11.67950932   8.29594537   0.00533823   0.47431839   0.26754985
Pb    7.74042862  11.68991596   0.02488613  -0.64335045   0.05383629   0.61381817
Pb   11.64915566   3.89363801   4.14713110   0.60326585   0.52928618   0.09755301
Pb   11.70597659   3.89390725   8.30730372  -0.76074180   0.08181854   0.75729767
Pb    0.00472922   3.85652999  12.46283825  -0.66059949  -0.49420285   0.29332232
Pb    0.01644693   7.81595573   4.13539871  -0.39516364  -1.09747579   0.50342149
Pb    0.00550182   7.78456024   8.29742906   0.36920673   0.00792753   0.71253459
Pb   11.70437287   7.80944719  12.45780118  -0.34803472   0.50533686   0.01343247
Pb   11.69684591   0.00961063   4.16365120   0.03286291   0.30975200   0.52809438
Pb    0.00858050   0.03713143   8.30909911  -0.20816960  -0.33712771   0.20275689
Pb   11.68079698   0.01114411   0.03377581   0.29739782  -0.29233271  -0.42231235
Ti    1.95398893   1.90396919   2.20353198  -1.44383278   0.27286680   0.76443422
Ti    1.93216895   1.98563025   6.42387517   0.74423409  -1.36010596  -1.10543525
Ti    1.95350899   1.89339868  10.52620874  -0.35079073   0.94052835  -0.40456318
Ti    1.90694252   5.80424451   2.14775015  -0.23349870  -0.23714855   1.29374877
Ti    1.94173275   5.77384403   6.39523618  -0.41030222   1.65083188  -1.27353090
Ti    1.83173147   5.81846730  10.57975880   3.54664053  -0.07073063  -0.13840375
Ti    1.93048328   9.67580501   2.26364021   0.51271461   1.34814195  -0.36803623
Ti    1.93925108   9.77685120   6.34864326   0.25992026  -0.56704039   0.68604208
Ti    1.96313132   9.74325498  10.56566996  -1.38410138  -0.72316493  -0.72954598
Ti    5.78975248   1.91226875   2.26991161   2.07707430   1.12315959  -1.61670978
Ti    5.81832683   1.95935028   6.38160865   0.73924346  -0.00199341  -0.15932748
Ti    5.84072041   1.94420272  10.53041046  -0.58609130  -0.28499043  -0.97617920
Ti    5.82543237   5.85755363   2.22265789  -0.57082504  -0.50608173  -0.82469767
Ti    5.93295198   5.85891153   6.37094851  -2.29920487  -0.56437305  -0.63078699
Ti    5.83737249   5.80254714  10.61632745  -0.15075439   0.32341503  -2.45553869
Ti    5.87437516   9.74170979   2.27486141   0.12967105  -0.15706450  -2.24430803
Ti    5.90786602   9.73493201   6.43118142  -1.67738468   0.90290182  -2.26258569
Ti    5.83211650   9.71114542  10.53396384  -0.15541869   0.51787194   0.24759445
Ti    9.72486485   1.95154238   2.27233040  -0.16049089  -0.22114096  -1.19949447
Ti    9.69304795   1.97566844   6.38698236   0.16988334  -1.14357964   0.31339476
Ti    9.71809879   1.86643976  10.57160473   0.45031942   3.27064174  -1.02653234
Ti    9.66950718   5.87003223   2.20691081   2.67787499  -0.40776967  -0.28162787
Ti    9.73569290   5.86668431   6.39938802   1.58239970  -1.28563325   0.33816698
Ti    9.76025209   5.85008521  10.56856254  -1.45269673  -1.06249887  -1.75908972
Ti    9.77740138   9.79347372   2.24967605  -1.72315156  -0.67864660  -0.70675653
Ti    9.75387232   9.69572862   6.44499596   0.80571415   1.67997399  -1.44629440
Ti    9.67599230   9.78977462  10.57241515   1.80158982  -2.22540254  -1.70706594
 O    1.94168593   1.88862263   0.41831387  -0.49657224  -0.59833553  -0.00692019
 O    1.95956099   1.96366979   4.62873253   0.29768157  -0.19851114  -0.62339860
 O    1.97983578   1.85507323   8.71035676   0.37790397   0.32358883   0.65077786
 O    1.92679589   5.69647907   0.38263045  -0.60396461   1.04162126  -0.55979033
 O    1.75078448   5.83274862   4.58238898   1.55508074   0.29849029   0.81578407
 O    1.95375481   5.77446445   8.78666092   0.00213884  -0.08536553  -0.25202820
 O    1.87044321   9.80359941   0.48671332  -0.14467129   0.22085366  -0.58397020
 O    1.92604671   9.82537257   4.53797796  -0.23451668  -1.44817785   0.64338592
 O    1.87064221   9.65199500   8.77936714   1.02989135   0.69859490   0.27680751
 O    5.86621607   1.89803425   0.46202668  -0.13162190   0.30471172  -0.21401505
 O    5.91113200   2.04558838   4.56993344  -1.05448976  -0.53171232  -0.19313034
 O    5.78387607   1.94623956   8.71313712  -0.04763969  -0.25297525   1.17328218
 O    5.83414163   5.81215777   0.41810191   1.09904002   0.35917583  -0.06930474
 O    5.84103647   5.96066008   4.54114483   0.16459122  -0.45075215   1.47027209
 O    5.82368818   5.76200926   8.76342056  -0.57058029   0.99193140   0.98098538
 O    5.79538307   9.80040367   0.45228917   0.62196561  -0.27934716   0.27284906
 O    5.95371842   9.82828736   4.58909676  -0.74967872  -0.96171455   0.62407962
 O    5.90608671   9.64390616   8.71975763  -0.74801873   0.51909566   0.54516607
 O    9.68471327   1.97632398   0.45905929   0.12441086  -1.20914584  -0.02896122
 O    9.74992740   1.83943402   4.58136660   0.01071193   0.81183982   0.61886554
 O    9.75951461   1.90862818   8.77762162  -0.51505918   0.33358071   0.02521204
 O    9.81665160   5.88986219   0.39542262  -0.85872045   0.14215647   1.57028671
 O    9.63451795   5.74891025   4.62894449   0.79370758   0.28268133  -0.94887088
 O    9.89405167   5.80138825   8.75214949  -1.03723363   0.02551708   0.68288171
 O    9.74561959   9.72827130   0.42980936  -0.02013984   0.14251472  -0.01525917
 O    9.72787330   9.82134571   4.64794572  -0.21450099  -0.16909236   0.02472256
 O    9.62915660   9.80197228   8.74426972   0.18074424  -0.65818753   0.49212076
 O    3.88319626   1.94381642   2.56302182   0.20847819  -0.03911981   0.19247770
 O    3.95810296   1.96466480   6.67632724  -1.49424977  -0.06432476   0.38599466
 O    3.85620223   1.90413308  10.90001185   0.31113178  -0.02831566  -0.38062806
 O    3.90735745   5.93752903   2.44911418  -1.43994528  -0.28092912   0.94108523
 O    3.87817439   5.70857137   6.65760030   0.26441785   1.36685944  -0.05196703
 O    3.92735129   5.81596222  11.03896771  -0.74509246   0.65112901  -1.45339194
 O    3.87626631   9.60778144   2.58285841  -0.03603392   1.46270989   0.17036218
 O    3.85253825   9.67610936   6.60981046   1.17170731  -0.52807310   0.76960220
 O    3.87502547   9.77170056  10.98314848   0.26919566  -0.65676164  -1.41217230
 O    7.78363546   1.98429577   2.59394246  -0.07711168  -0.19534367  -0.25518502
 O    7.72624094   1.96370491   6.68662580   1.81807270  -0.70283710   0.34360452
 O    7.72073912   2.05316216  10.80498076   0.85757122  -1.34009381   0.45662243
 O    7.82487570   5.70274178   2.54902026  -0.60009129   1.42744567  -0.43924570
 O    7.81705609   5.93028301   6.65797434  -0.77501491  -0.35019129   0.79891456
 O    7.80530327   5.76126008  10.68520068  -0.56718937  -0.02039522   1.74554729
 O    7.78927775   9.82298455   2.50914760   0.32428049  -1.01991365   0.40207674
 O    7.79974292   9.64573229   6.69782207   0.47466600   0.50190692   0.33429366
 O    7.75709796   9.73686350  10.87002631  -0.01808258   0.73014187   0.52768648
 O    0.02695892   1.92276903   2.59642360  -0.35257487  -0.50128265  -0.64784094
 O    0.06631449   1.95124973   6.79141934  -2.29940350  -0.39887735  -0.82241695
 O   11.62829557   1.94064409  10.84227254   1.27924156  -0.57666694   0.51239538
 O   11.64567898   5.80991021   2.64002419  -0.01334380   0.47090263  -1.13145246
 O   11.64444985   5.73567076   6.79442413   1.16862852   0.04319885  -0.96998969
 O    0.00103013   5.85882959  10.88460140  -0.32379101  -0.02450619   0.19441436
 O   11.65744351   9.78808896   2.59043896   0.91404294  -0.22632667  -0.16640728
 O   11.65849705   9.75114482   6.73571232   1.22591959   0.46791961  -0.09572631
 O   11.65317082   9.65572922  10.85891732  -0.22273002   0.65873377   0.31310391
 O    1.95053566   3.91241444   2.41486458   0.30379305  -1.34952882   1.43038967
 O    1.90758635   3.85891802   6.57443874   0.45778230   0.78065109   1.49321405
 O    1.94295017   3.82358931  10.87993837  -0.34815886   0.68144163  -0.38494120
 O    1.87871935   7.75561130   2.38404368  -0.41197995   0.76294803   1.27013997
 O    1.88870457   7.73812253   6.81012134   0.33240666   0.22063374  -1.28158613
 O    1.98534931   7.77608509  10.90250545  -0.34283482  -0.24309687   0.26057291
 O    1.96646753  11.69813357   2.69818741   0.14305741   0.04239014  -1.60472449
 O    2.05924928  11.64953026   6.71724721  -0.94271330   0.28142215  -0.02021078
 O    1.87608550  11.68402784  10.84904267   0.01849049  -0.40801441   0.28869704
 O    5.80775631   3.95807954   2.52357307  -0.27793545  -1.39531344   0.65075303
 O    5.88031010   3.92745665   6.82614272   0.05868504   0.18894489  -1.76873755
 O    5.76732379   3.88056241  10.86275747   0.10710861  -0.80202883   0.20040523
 O    5.86263404   7.82885574   2.46584623   0.98093217  -1.06569826   1.07968761
 O    5.87404739   7.79452204   6.78634487  -0.80499766  -1.11020951  -0.82384285
 O    5.96810510   7.80131152  10.92514734  -1.61966088  -0.25233324  -0.47172908
 O    5.91499498  11.70278085   2.39314532  -1.23525882   0.78454214   1.95490869
 O    5.84129400  11.66231321   6.69492949  -0.00866886   0.15937359   0.24913740
 O    5.74015416  11.66048707  10.84198578   1.22575997   0.74728095  -0.21491953
 O    9.80074315   3.82101399   2.55135178  -0.46762876   1.91580661   0.09218641
 O    9.61446557   3.84464840   6.78794077   1.32908749   0.56263502  -0.91651164
 O    9.73895888   3.89180017  11.01050327   0.34034838   0.02031719  -0.98616399
 O    9.70358335   7.81812134   2.66209255   0.10632473  -0.96383565  -0.82701386
 O    9.89440285   7.76579552   6.62734046  -1.22854791   0.62064968   0.34849228
 O    9.61221802   7.75473335  10.81869556   0.74869266   1.05597950   0.50810352
 O    9.65660717  11.67330514   2.53860948   1.00520781   0.83883600  -0.04060955
 O    9.74289209   0.06279098   6.79636914  -0.41854189  -1.15773570  -0.41926548
 O    9.69065992  11.68412149  10.75222865  -0.20165732  -0.07617172   1.59677567
