# total energy = -399029.18562439
CRSYTAL
PRIMVEC
 11.70600000   0.00000000   0.00000000
  0.00000000  11.70600000   0.00000000
  0.00000000   0.00000000  12.46800000
PRIMCOORD
135 1
Pb    3.84271691   3.87654725   4.08216035  -0.30340889   0.73677646   0.63463829
Pb    3.97999318   3.90187904   8.35767444  -0.44008905   0.00281121  -0.22107630
Pb    3.90775545   3.89915154   0.00895202  -0.34266116  -0.00127850   0.00129346
Pb    3.86935977   7.81754774   4.14721837   0.55958046  -1.07018156   0.36410412
Pb    3.92486962   7.74552073   8.23917857  -0.79321749   0.22031369   0.28437340
Pb    3.92317225   7.81079338   0.01326595   0.09428771  -0.42256385   0.17152871
Pb    3.90605808   0.00153349   4.08111304  -0.06851578  -0.66167376   1.23202057
Pb    3.94012254   0.01048858   8.32443475   0.39986482   0.17131189  -0.45273203
Pb    3.91915709   0.06329434   0.00872760  -0.13039233  -1.12505250   0.13600727
Pb    7.79474446   3.81020935   4.11245759  -0.46663855   1.42416233   0.63771866
Pb    7.75647754   3.91751825   8.29709243   0.47992451  -0.33498267   0.79655954
Pb    7.78972258   3.91295291  12.42008548   0.09247089  -0.16583152   0.47539367
Pb    7.79943856   7.73399032   4.14201922  -0.46290023   0.92603972   0.50971138
Pb    7.78271069   7.81135527   8.33045680  -0.10800731   0.23259030   0.68949428
Pb    7.78751015   7.83530575  12.45589357  -0.09481107  -0.40171154   0.28436592
Pb    7.77531250   0.00702360   4.17327649   0.51319548  -1.15674591   0.21173052
Pb    7.86706412  11.67117465   8.28858925  -1.06215166   0.12231010   0.84458190
Pb    7.69465816  11.68732893   0.05277704  -0.25721083  -0.06126346  -0.07638119
Pb   11.62095591   3.89504273   4.14411384   0.92134440   0.64468687   0.64811117
Pb    0.01061734   3.89261959   8.31214130  -0.38173400   0.01919249   0.75418204
Pb    0.02006408   3.82199729  12.46505755  -0.68616719  -0.23031741   0.03274014
Pb    0.03756455   7.82843432   4.12532456  -0.60618226  -0.88859679   0.72553161
Pb    0.02301400   7.77876577   8.29426219   0.48414132  -0.15322594   0.30904626
Pb    0.00526770   7.82697107  12.45323789  -0.44103111   0.14379044   0.47507218
Pb   11.70088448   0.03017807   4.17502201  -0.33569295  -0.36901626   0.42982365
Pb    0.02452407   0.07600706   8.31029604  -0.07466157  -0.56961409   0.06358869
Pb   11.67263790   0.02879676   0.05995861   0.61210375  -0.39571529  -0.23179030
Ti    1.92731096   1.88176291   2.20721004  -0.38807418  -0.48395441  -0.52636182
Ti    1.93641823   1.99182272   6.41330231   0.79997636  -1.28189713   0.56915802
Ti    1.95162432   1.87740828  10.52218158   0.05942421   0.44989838  -1.32537370
Ti    1.86564375   5.76080354   2.09755398   0.47708339   0.63719530   3.27783429
Ti    1.93776442   5.75951588   6.40074703  -0.09190266   2.05235577  -2.86787603
Ti    1.83249236   5.79703361  10.62168869   2.76893787   0.07880362  -2.37719266
Ti    1.93071740   9.65689982   2.28593299   0.36760318   2.12087903  -2.27351432
Ti    1.93808048   9.78523270   6.33186133   1.15634218  -0.78741563   2.18387707
Ti    1.93590316   9.72467756  10.56943530   0.01087101  -0.19973802   0.32411914
Ti    5.79923434   1.92602330   2.25704464   0.89712014   0.47530395  -0.43239561
Ti    5.82007102   1.97948460   6.35573755  -0.37880317  -1.03039844   3.63027488
Ti    5.82520996   1.94101868  10.53075956  -0.12896429  -1.77607208  -3.00107957
Ti    5.79828616   5.84475898   2.19370720   0.08549520   0.75743437   0.34619761
Ti    5.93805580   5.85871253   6.35750801  -1.51888368   0.24918093  -1.43501091
Ti    5.82542066   5.77329385  10.60372230  -0.10485965   1.40815488   5.05775683
Ti    5.90051465   9.73845552   2.24069909  -0.28767807  -1.03036853   5.00437373
Ti    5.91459697   9.74096060   6.41575850  -1.11540766   0.70503071  -1.04805075
Ti    5.81826830   9.69723869  10.54506036  -0.15212687   0.65032425  -1.49662577
Ti    9.70474224   1.96506281   2.27325304   0.25694167  -0.95607332  -0.68111299
Ti    9.66099692   1.97152452   6.39932568   0.87643980  -0.61333739   0.38300503
Ti    9.70923734   1.88731156  10.56053315   0.14092689   1.52651732   2.23265456
Ti    9.68986391   5.87471463   2.19800866   0.30498645   0.22934545  -0.16110630
Ti    9.76879747   5.85060027   6.40264217   0.28327434  -0.32842567   1.87605697
Ti    9.73784681   5.82786722  10.54335224  -1.09077218   0.16130817   2.06645669
Ti    9.76693622   9.81441575   2.23132315  -1.30557559  -0.95366585   3.04870567
Ti    9.78714077   9.70464859   6.47082966  -0.46133014   1.28564291  -2.96998429
Ti    9.67731508   9.77242633  10.55740368   0.24317720  -1.39865209  -0.61467571
 O    1.90211965   1.79753824   0.39245524   0.04242984   0.13407083   0.83884733
 O    2.00272101   1.96770836   4.64954162  -0.37535644  -0.32601072  -1.83576545
 O    2.04240435   1.80705522   8.66309057  -0.43876569   0.72196526   2.22300972
 O    1.87025591   5.65945300   0.34462799  -0.35866862   0.67202889  -0.53193938
 O    1.70892382   5.85271906   4.52954959   1.70270397  -0.20050811   2.64767450
 O    1.96882043   5.70920350   8.77515295  -0.42939000   0.41487040   0.82058941
 O    1.79884931   9.86787706   0.48218743   0.56796923  -0.38352091   0.23685945
 O    1.89595058   9.77772915   4.55614384   0.09604471  -1.01665641  -0.68215972
 O    1.89550576   9.63065497   8.79813148   0.58295239   0.45689650   0.19424270
 O    5.87607253   1.88427970   0.47929486  -0.28310238   0.45372642  -1.31717931
 O    5.88296736   2.08709786   4.62121433  -0.51598427  -0.62319906  -3.85905958
 O    5.72948999   1.92902003   8.67611963   0.30847804   0.30958458   2.36480390
 O    5.91627093   5.81871313   0.41666809  -0.20746137  -0.21998471  -0.66355040
 O    5.85317559   6.02866024   4.57079374  -0.18129318  -1.23996074   0.46713948
 O    5.76328522   5.77624376   8.91832300  -0.61970747   0.26922576  -7.47587654
 O    5.80678471   9.82396785   0.55941422  -0.10703535  -0.16604835  -7.23512176
 O    5.98499686   9.82273872   4.61451901  -0.48968898  -0.78214461   0.01434764
 O    5.89731892   9.60236156   8.73762427  -0.47813012   0.42827599  -0.19461653
 O    9.64302821   1.90697764   0.49519156   0.36138263  -0.11328581  -1.05353112
 O    9.75500780   1.81494506   4.60641481  -0.12675121   1.03098909  -0.12390262
 O    9.73062421   1.90406284   8.83326630  -0.22298284   0.65676910  -2.82435460
 O    9.81338563   5.94029164   0.40454920  -1.01008445  -0.20574922   1.84539534
 O    9.60355558   5.69860957   4.69503736   1.00230129   0.10791759  -4.73066200
 O    9.93559627   5.76624683   8.81928967  -0.80286981   0.13161102  -2.89406665
 O    9.74539718   9.72656222   0.49283510  -0.13079606  -0.11537179  -3.43045462
 O    9.69341083   9.86843894   4.66677240   0.37784616   0.00465046   0.29606684
 O    9.54263755   9.80252246   8.75885728   1.09871236  -1.03412180   0.20886697
 O    3.88353574   1.94357059   2.57936737   0.34627985  -0.27739771  -0.15762219
 O    3.93700874   1.97522362   6.67443210  -1.18518699   0.05941673  -0.01205232
 O    3.86944171   1.86835954  10.88654641  -1.21231218   0.28216780   0.10998862
 O    3.80732968   5.99508743   2.43592303  -0.07537185  -0.84178564   0.33171539
 O    3.88609935   5.70607799   6.60304033  -0.05592515   0.88317623   0.55762159
 O    3.90562496   5.84807177  11.05633564  -0.79978944  -0.36097889  -0.68761765
 O    3.90588249   9.60938516   2.61419050  -1.09592358   1.05542270  -0.05288216
 O    3.94584677   9.57996799   6.58440067  -1.47794917   0.39355454   0.55991691
 O    3.93527626   9.74329010  10.95968370  -2.88679937  -0.28282574  -0.43077318
 O    7.78019390   2.00191330   2.59976502  -0.12272879  -0.22525573  -0.28428368
 O    7.75465141   1.92338945   6.68330932   1.18117952  -0.10702788   0.44082924
 O    7.70183393   2.03648111  10.77984527   1.93256530  -0.60249628   0.72349049
 O    7.70267677   5.69892563   2.51209004   3.34653699   0.77532593   0.09154379
 O    7.85337981   5.97755184   6.65913386  -2.27305077  -0.88539679   1.65320124
 O    7.76785577   5.69563624  10.66565086   0.62477662  -0.04095695   1.60502187
 O    7.78058020   9.80477001   2.49595645   1.66910402  -0.12746897   0.53087022
 O    7.85476112   9.60614260   6.70418075  -1.34998674   0.29085563   0.54078423
 O    7.66304025   9.78478787  10.90084721   3.27557635   0.25425756   1.11865251
 O    0.02846899   1.86367714   2.57228555  -0.95252192   0.36900131  -0.32488175
 O   11.66086166   1.92973410   6.78789090   0.40310219  -0.13066148  -0.80097075
 O   11.69302975   1.89321138  10.85631151  -0.83399500   0.12760355   0.01819810
 O   11.65128616   5.82175669   2.62654628  -0.62364765  -0.02826164  -1.36745961
 O   11.64268225   5.64606133   6.78058465   2.21434431   0.98843215  -0.56862718
 O   11.67859625   5.86925963  10.90670717   0.49957308  -0.05051207  -0.00025421
 O   11.68187393   9.80453589   2.59969021  -0.20355109   0.07117746   0.08515127
 O    0.00131107   9.79430485   6.73750771   1.13041324   0.02930089   0.26992109
 O   11.60030653   9.63478718  10.87823026   0.56742344   0.59021967  -0.58864958
 O    1.98605167   3.82842389   2.40732144  -0.47700862   1.01026389   0.84408844
 O    1.92060342   3.86076757   6.57603464  -0.06026159  -0.06173449   1.30682419
 O    1.91530060   3.82803759  10.84982815   0.08035876  -0.44478437   0.12894186
 O    1.79635594   7.78761550   2.34349775   0.14340913  -0.82633894   0.88752763
 O    1.87188305   7.72618241   6.78814026   0.09599238   0.11344282  -0.98878355
 O    1.99911556   7.71648985  10.94782663  -0.76992033   1.66488720  -0.02073268
 O    1.99998181  11.69469200   2.68441027  -0.09584285   0.01055699  -0.82741557
 O    2.08746074  11.64776265   6.71921716  -1.04764701  -0.18901654  -0.46631705
 O    1.82055224  11.66032319  10.85370570   0.75962502  -0.81436886  -0.36595832
 O    5.76199756   3.93333306   2.54085372  -0.51277679  -0.94688455   0.31163317
 O    5.91289960   3.90557813   6.77396414   0.10493442   1.22423740  -0.59251499
 O    5.71510332   3.81017423  10.86289462   0.07111765   1.14978518   0.53113191
 O    5.96103467   7.80442532   2.47131968  -0.59369630  -1.07571426   0.66010367
 O    5.83045424   7.73793524   6.77366491   0.28326686  -0.35525180  -0.01768969
 O    5.94840390   7.79995363  10.92367612  -1.24618877  -1.04794608   0.22183892
 O    5.87663441  11.69832086   2.40311972  -0.73937832   1.81695426   2.18407146
 O    5.83453964  11.67942738   6.69684956   0.23551366  -0.56302719  -0.10138302
 O    5.75086515  11.67830360  10.78569276   0.66751301   0.67696346   0.90046967
 O    9.81194579   3.88300897   2.54975587  -0.61064580   0.29194722  -0.15781658
 O    9.61069624   3.90749792   6.77426338   0.67101207  -2.43680379  -0.10155499
 O    9.75977215   3.92134612  11.04627396   0.29432479  -1.60520131  -1.06862642
 O    9.67512606   7.81527678   2.68484665   0.72490358  -1.40187451  -1.12248054
 O    9.91095514   7.76653300   6.56958869  -0.02091212   0.65500462   1.35670823
 O    9.56445754   7.77143781  10.81431929   0.52058239   0.77099696   0.17442217
 O    9.66255382  11.69604990   2.51661593   0.67181954   1.01380781   0.34832844
 O    9.70535095  11.69967876   6.82843684   0.33627613   0.78467171  -0.49213383
 O    9.62940242  11.67941567  10.77586798   0.30310235   0.42692272   1.28111208
