# total energy = -399029.05228860
CRSYTAL
PRIMVEC
 11.70600000   0.00000000   0.00000000
  0.00000000  11.70600000   0.00000000
  0.00000000   0.00000000  12.46800000
PRIMCOORD
135 1
Pb    3.81722125   3.87207556   4.05287302  -0.24262887  -0.00995476   1.24559674
Pb    4.01971163   3.90883240   8.38163794  -1.16704999   1.01883157  -0.62749707
Pb    3.91164184   3.90166833   0.01638295  -0.85839382  -0.55605584   0.05410418
Pb    3.85875413   7.82157461   4.14810360   0.14686591  -1.13947365   1.03197077
Pb    3.93246682   7.72097324   8.20899354  -0.62060201  -0.19721659   0.73795832
Pb    3.93552208   7.81522996   0.02437494  -0.69099085   0.05689105  -0.34791006
Pb    3.90810663   0.00774937   4.05673810  -0.22450060   0.05484865   1.51647626
Pb    3.96106457   0.02467625   8.32969625  -0.36834968  -0.45038879  -0.30360863
Pb    3.93081627   0.09680862   0.01718090  -0.70414953  -1.60961996   0.05851640
Pb    7.79219255   3.77395587   4.09849343  -0.07356937   2.71288383   1.01048656
Pb    7.73986673   3.92600510   8.30141882   0.81915162   0.20378814   0.18956928
Pb    7.78849345   3.91819720  12.40360278   0.12820365  -0.94949511   1.36672214
Pb    7.80228312   7.71144456   4.14432580   0.35738540  -0.31065180   1.00964076
Pb    7.77848482   7.81976018   8.35303634  -0.55204899  -0.11477212   0.05050659
Pb    7.78660879   7.85521765  12.45833730   0.28922216   0.25702314   0.49458108
Pb    7.77039598   0.01272442   4.18569462   0.76665329  -0.45066942   0.36261224
Pb    7.90030916  11.66280486   8.28386388  -0.91641131  -0.29757107   1.72105953
Pb    7.64584414  11.68448437   0.08174021   1.23308118  -0.00330916  -0.99086936
Pb   11.59418429   3.89880036   4.14300419   0.42949703   0.72037572   0.65229043
Pb    0.02055574   3.89122658   8.31990887  -0.00277907  -0.27672609   0.68432186
Pb    0.03381863   3.78471368  12.46748881  -0.48889431   0.32685070  -0.23241296
Pb    0.05772229   7.83839613   4.11717049  -0.77696275  -0.82262059   0.61066283
Pb    0.04326538   7.77223382   8.29211770   0.92664671   0.12395124   0.18640043
Pb    0.01098023   7.84607527  12.45007102  -0.58787679  -0.11717311   0.85145199
Pb   11.70406851   0.05076892   4.18856226  -0.29342000  -0.55298445   0.29636667
Pb    0.04108806   0.11506998   8.31197922  -0.27331948  -0.90032933   0.50437604
Pb   11.66590695   0.04570022   0.08657779   0.05659093  -1.07795601  -0.66657556
Ti    1.89310603   1.85195944   2.20541465   0.65989877  -0.45567019  -0.12930280
Ti    1.95229156   1.98040937   6.40570930   0.15770545  -0.06654569  -1.08940360
Ti    1.94929483   1.86674411  10.50116053  -0.48726897  -0.50834002   0.56687200
Ti    1.82706077   5.72401159   2.08827779  -0.18344986   1.05285862   0.98821502
Ti    1.93399508   5.77430056   6.36712084   1.53630783   1.36772385  -0.80653861
Ti    1.87390819   5.77650129  10.63279768   0.63956439   0.80965289  -2.24468249
Ti    1.93517739   9.66751716   2.27730514  -0.76451735   1.64872183  -2.26958499
Ti    1.95355581   9.78165066   6.34358125   1.33958625  -1.28838976   1.08723257
Ti    1.90584215   9.70210839  10.57767665   0.29286263   0.44619484   0.67402020
Ti    5.82245905   1.94889682   2.23571189  -0.72017694   0.49465904  -0.03716471
Ti    5.81746058   1.98779586   6.36937754  -0.63249784  -0.34214144  -1.13807047
Ti    5.80827137   1.91284234  10.49345531   1.27730076  -1.47567887   1.03702221
Ti    5.77327043   5.83912839   2.16792337   2.10065022  -0.36948781   1.19655179
Ti    5.91906866   5.86076108   6.32829548  -1.56015015   0.24103081   1.76603137
Ti    5.80961756   5.76284039  10.63960520  -0.99456050   1.70162162  -1.96151348
Ti    5.92296676   9.72241830   2.25443882  -1.19014005  -0.08214825  -1.30016865
Ti    5.90465858   9.75608476   6.38625922  -0.51572229  -0.92067151   1.63039088
Ti    5.80240667   9.69249776  10.53895104   0.35952525   0.71661443  -0.03469746
Ti    9.68749930   1.96692406   2.26229366   0.77880247  -0.18064741  -1.13666730
Ti    9.64239608   1.95772315   6.41802768   2.65948124  -0.10636085   0.23151649
Ti    9.70210839   1.93082276  10.57379910  -0.06328330  -1.65993556  -0.05438092
Ti    9.71703354   5.88198406   2.19167491  -1.05984333   0.04405977   3.05656097
Ti    9.80708780   5.82698927   6.42388764  -1.53550490  -0.12418900  -2.89713662
Ti    9.70089097   5.80615259  10.54029758   1.61984756   1.05870520   1.11917045
Ti    9.73885352   9.82225877   2.24552420   1.24726886  -0.99008202  -0.84626803
Ti    9.81651113   9.73355071   6.45751384  -0.84568337   0.63585767  -1.15346645
Ti    9.68398750   9.73536514  10.53493634  -0.08933563   1.30425736   2.14085515
 O    1.86255337   1.70822146   0.39906328   0.66720309   1.06148817   0.60857756
 O    2.03145924   1.95760609   4.60311079  -0.98737701  -0.29519736   0.31361406
 O    2.08949759   1.78688578   8.69914802  -1.03969994   0.55081732  -0.15322698
 O    1.79634423   5.65052132   0.29328476   0.42308139   0.16931675   2.30102786
 O    1.73868047   5.86636825   4.57589315   0.87061315  -0.30407246  -0.53519138
 O    1.96718159   5.65907840   8.79565034  -0.39724344   0.88552971   0.60157336
 O    1.74889981   9.91775632   0.48641408   1.18770008  -1.09031956   0.49866199
 O    1.86903849   9.68196236   4.55236603   0.55526071  -0.27895168  -0.18562869
 O    1.94811252   9.62878201   8.82014996   0.03274471   0.12758781  -1.34890958
 O    5.87346209   1.88961764   0.44423484  -0.48450549   0.38763167  -0.76219821
 O    5.82927194   2.09907310   4.54650607   0.04419229  -1.30105733   1.99854177
 O    5.68545202   1.92362357   8.72256293   0.51185575   0.60668327  -1.89451955
 O    5.99346029   5.81685187   0.38850288  -1.60077214  -0.50565059  -0.24061375
 O    5.85870082   6.04833802   4.60597843  -0.26918401  -1.13960228  -3.89732542
 O    5.67667252   5.80326121   8.83149584   0.49799938  -0.56502059   0.47290589
 O    5.81891213   9.83776922   0.43527035  -0.06794887  -0.65458229   2.07066120
 O    5.99590685   9.78166237   4.62997933  -0.17786444  -0.45788799  -2.77194591
 O    5.86668431   9.57896127   8.75024189  -0.10763541   0.50674195  -0.37132363
 O    9.61519134   1.82919127   0.49080282   0.52121027   1.17035915  -0.78305488
 O    9.75408303   1.83403755   4.62481758  -0.38886335   0.76102889  -1.31362746
 O    9.69006292   1.92681931   8.79017689   0.14386467   0.39656524  -0.13968632
 O    9.76550809   5.98480956   0.47094130  -0.81369482  -0.45754109  -3.67325357
 O    9.61775495   5.65519201   4.59948260   1.25065987   0.87492013   2.09405918
 O    9.93985725   5.73564735   8.78415485  -1.15737586   0.34859606  -1.06655130
 O    9.73890035   9.72108382   0.44332468  -0.26176276  -0.06415639   1.33983180
 O    9.67235174   9.91715932   4.69185802   0.56242861  -0.10502783  -1.32076028
 O    9.49866982   9.75914002   8.77536491   1.40911369  -0.66068611  -1.72881988
 O    3.89595580   1.93133782   2.58805757  -0.37986353  -0.32324142  -0.86258776
 O    3.87248527   1.98723397   6.67352194   1.93037463  -0.24488175  -0.02522601
 O    3.83942753   1.84310970  10.87618550  -0.10112622   0.46634213   0.35091909
 O    3.70316969   6.01945932   2.43803012   2.50612173  -0.94026922  -0.12740462
 O    3.89048910   5.74222612   6.56905256  -0.57802727  -0.01545834   0.73807525
 O    3.85418879   5.86717597  11.04204731   0.82247247  -0.98406005  -0.11090559
 O    3.90084891   9.65686470   2.64255520   0.86272418   0.00380807  -0.83192054
 O    3.98620906   9.49727680   6.58190707  -1.92005348   1.56506907   0.08053459
 O    3.88978674   9.70099632  10.91259206  -0.71788118   0.27853073   0.15666866
 O    7.77143781   2.00929978   2.59238396  -0.07536232  -0.45119561  -0.42083631
 O    7.81884711   1.87514902   6.69910627  -3.72167099   0.32792257   0.26254620
 O    7.75492064   1.99364886  10.78372282  -0.52902519   0.66705498   0.37678823
 O    7.69799437   5.72911540   2.47597025   0.68737377  -0.23649777   0.49919987
 O    7.81164792   5.98725611   6.72886739   1.49545588  -1.31891276   0.84254960
 O    7.75024995   5.62664108  10.71421372   0.49308436   0.47431296   0.38376124
 O    7.82757979   9.77829104   2.50510796  -1.26673015   0.51110350   0.38570620
 O    7.85841339   9.57891445   6.73235843  -1.54584554   0.38227621  -0.00212036
 O    7.68584354   9.84301351  10.97556793   0.46965519  -1.12926164  -0.28352760
 O   11.69764192   1.81718091   2.53201391  -0.35192470   1.08700261   0.03879006
 O   11.56277709   1.90011792   6.75012533   3.41747381  -0.04292554  -0.19723218
 O    0.02234675   1.84848275  10.87237030  -1.74791089   0.73650837  -0.40884694
 O   11.63988451   5.83297103   2.55526673   1.15396925  -0.56896898  -0.27851903
 O    0.01545192   5.59511682   6.73915349  -1.37866474   1.55891458  -0.26512649
 O   11.66245368   5.87746554  10.92823940  -0.56651731  -0.17681205  -0.62207924
 O   11.69692785   9.82465850   2.61284395  -1.64161630   0.25117656   0.20739743
 O    0.09273493   9.84088302   6.75022507  -1.71562612  -0.52011112   0.29792186
 O   11.56987093   9.63834581  10.87366697   1.13957889   0.22363920  -1.05019648
 O    2.00268589   3.78126041   2.43708256  -1.10985881   2.25470741   0.00682100
 O    1.93321078   3.85704506   6.63588104  -0.22560755  -1.51837444   0.74635399
 O    1.88925475   3.81581653  10.82350820   0.40041228  -0.73854687   0.58029963
 O    1.71745750   7.79112730   2.34141559   1.08211098  -0.70097290   0.51509865
 O    1.85852650   7.72001335   6.72219701  -0.14349049   0.33522300  -0.05606863
 O    1.98051473   7.71960364  10.99534218  -0.70009201   1.19575666  -0.17090312
 O    2.03081541  11.68972866   2.63238131  -0.42800811  -0.42574353   0.08340331
 O    2.07281654  11.64264713   6.70284667  -0.35433739   0.53263058  -0.24619138
 O    1.79471710  11.60537522  10.84398066   1.07326316   0.52967611  -0.52916161
 O    5.69484023   3.87605560   2.56944284   0.31027762   2.18491492  -0.93057171
 O    5.95072169   3.91971898   6.69030386  -0.19116734  -1.74488626   0.34019258
 O    5.66501335   3.78527557  10.88467621   0.45426311   2.25276245   0.11884134
 O    6.03800162   7.74321464   2.50443469  -2.14054723   1.93524288  -0.50046273
 O    5.79540648   7.67217093   6.75738170   1.02511079   2.63374462   0.29421124
 O    5.87363768   7.75583371  10.92826434  -0.10931142  -0.47478069   0.00239320
 O    5.80616429   0.04697618   2.50656672   0.68337471  -2.24664694   0.72519330
 O    5.83659989  11.67902938   6.69471754   0.08677873   0.26021147  -0.34331855
 O    5.79130938   0.01616599  10.76125548  -0.23854407  -0.84212086   0.64223043
 O    9.79723135   3.95471992   2.54101580  -0.41733616  -3.00351696  -0.38710158
 O    9.63781904   3.88413274   6.75204540  -0.00114203  -0.58713233   0.11103032
 O    9.79366102   3.89175335  11.03619982  -0.10073255  -0.34349005  -0.87543853
 O    9.67503241   7.76324361   2.66160630   0.64903584   1.65013670  -0.46695018
 O    9.92406586   7.78910216   6.56599790   0.43529294  -1.09813448   1.28963703
 O    9.53736985   7.81301752  10.81736148   0.19500659  -2.04357208  -0.27803182
 O    9.69726211   0.04846284   2.50962138  -0.21929325  -1.46816018   0.82600380
 O    9.68031182  11.65375612   6.83975778   0.92112365   0.74586288  -0.56833365
 O    9.57975728  11.69266687  10.85507718   1.06096197   0.58650480  -0.03852891
