# total energy = -399028.33118686
CRSYTAL
PRIMVEC
 11.70600000   0.00000000   0.00000000
  0.00000000  11.70600000   0.00000000
  0.00000000   0.00000000  12.46800000
PRIMCOORD
135 1
Pb    3.78900979   3.86749852   4.02578005   0.04240199  -0.02614664   1.76302981
Pb    4.05832973   3.91940292   8.40502790  -1.72930571   0.73208074  -0.89661334
Pb    3.91295291   3.90259310   0.02461183  -0.95930837  -0.79857078   0.30481398
Pb    3.84801973   7.82205455   4.15220557   0.01451894  -0.70745713   0.31696051
Pb    3.93833152   7.69422503   8.17928230  -0.76309771   0.21406853   1.55445086
Pb    3.94650231   7.82018159   0.03530938  -1.19011761   0.37397348  -0.11731886
Pb    3.90955817   0.01432814   4.03601628  -0.22993058   0.04043126   2.32482059
Pb    3.98234608   0.03848933   8.33415979  -1.10605423  -0.72415181  -0.60676182
Pb    3.94091855   0.12726763   0.02655684  -1.11324257  -1.80793809   0.25114412
Pb    7.78900852   3.74409386   4.08708521  -0.05570334   2.60655071   1.45849199
Pb    7.72478940   3.93560402   8.30691721   1.25026032   0.32518651  -0.05412592
Pb    7.78769744   3.92074911  12.39058619   0.30137880  -1.16005044   1.73116347
Pb    7.80619292   7.68674490   4.15012342   0.09983756  -0.12979594   0.89039154
Pb    7.77244453   7.82842262   8.37736141   0.10854474  -0.64256543  -0.42302406
Pb    7.78666732   7.87701422  12.46276344   0.68686702  -0.20374628   0.96126654
Pb    7.76756312   0.01704394   4.20024478   0.42486089  -0.29737877   0.32245009
Pb    7.93267625  11.65305376   8.28461196  -1.21354456  -0.03263623   1.73900871
Pb    7.59752177  11.68155787   0.10960619   2.23174040   0.03622203  -1.10040983
Pb   11.56710831   3.90509819   4.14416371   0.27738699   0.07827673   0.54672790
Pb    0.03105602   3.88890879   8.33060641  -0.19855796  -0.01968634   0.40978965
Pb    0.04675376   3.74553370   0.00134654  -0.62819294   0.80037414  -0.50256021
Pb    0.07675624   7.84639133   4.11062479  -0.65264501  -0.20413959   0.66292123
Pb    0.06777774   7.76560822   8.29055920   0.10278319   0.33882678   0.25640776
Pb    0.01496027   7.86604570  12.44957230  -1.00553465  -1.00451791   0.99334628
Pb    0.00035118   0.07097348   4.20424700  -0.43954301  -0.80052477   0.25263786
Pb    0.05805005   0.15387537   8.31540792  -0.19857051  -1.40628658   0.58889140
Pb   11.65880141   0.06030931   0.11269825  -0.77907691  -1.14675746  -1.24271215
Ti    1.86525745   1.81520260   2.20319534   0.94816603   1.09689516   1.47558417
Ti    1.97253124   1.96539058   6.38327936   0.05090833   0.00981179  -1.40021122
Ti    1.93893502   1.84841252  10.48687220  -1.15160268  -0.87976803   1.98827416
Ti    1.78661654   5.70103271   2.09633212   1.77431023   1.92371720   0.52132604
Ti    1.95009083   5.80941856   6.32140068   0.79579251  -0.38921628   2.33643155
Ti    1.92782602   5.76566153  10.61417048  -1.79048190   0.90775569   0.53193282
Ti    1.93017893   9.70182745   2.23804340  -0.70859103  -0.44174386   1.00923343
Ti    1.98907181   9.76012333   6.37227012   0.36946299  -0.40441304  -0.55092040
Ti    1.87802870   9.68445574  10.59186523   0.70827304   0.99002826  -2.22972783
Ti    5.83755979   1.97877053   2.21176086  -1.62920874  -0.79296822  -0.03137262
Ti    5.80568435   1.98987953   6.37286858  -0.38299866  -0.63029756  -2.56203155
Ti    5.80779143   1.86381761  10.46560180   1.55820821   1.46459245   2.62863874
Ti    5.77466345   5.83016159   2.15740038   1.73122204   0.19564580   1.28662460
Ti    5.87695048   5.86721108   6.31401962  -0.21080909   0.30734119  -0.36676841
Ti    5.78058668   5.77582234  10.66006519   0.08499226   0.86287251  -4.18371304
Ti    5.92966259   9.70269369   2.26167026  -1.68488279   0.27990166  -1.54859307
Ti    5.88616310   9.76122369   6.37066175   0.12093814  -0.64852364  -0.93280190
Ti    5.78906183   9.69733234  10.53105880  -0.22715231   0.09360739   1.18846488
Ti    9.68015964   1.96430192   2.23331803   0.83899367  -0.67233135  -1.46492300
Ti    9.65736806   1.94122939   6.44075684   1.16482872   0.50063970  -0.61567821
Ti    9.69449949   1.95518294  10.58891032   0.28515274  -2.87211335  -2.04322017
Ti    9.73181822   5.89055285   2.21811954  -1.47626199  -0.07470767  -1.38002697
Ti    9.82777230   5.80088489   6.41224253  -1.43988934   0.75404325  -1.33059564
Ti    9.68372997   5.79764233  10.55333911   3.09854181   0.96308246  -1.35601424
Ti    9.72482974   9.81641748   2.25357853   1.85946567  -0.44945940  -1.68379073
Ti    9.83624744   9.77227415   6.42488508  -0.39941300  -1.39193083   0.34087701
Ti    9.69046092   9.71242138  10.53701850  -0.00155650   2.11717470   0.90673476
 O    1.84840081   1.65754619   0.42952260   0.78843263   1.35720672  -0.69164530
 O    2.01989371   1.93432285   4.55878705  -1.00488193   0.01028460   0.69125617
 O    2.09572518   1.78936745   8.73208848  -1.00998239   0.12536495  -2.03760089
 O    1.73472385   5.64990090   0.32171180   0.95916611  -0.04106307   0.42569772
 O    1.81082455   5.86715255   4.59870959   0.12633985  -0.40466409  -3.64499356
 O    1.94837005   5.64451614   8.83951277  -0.08981238   1.12168614  -1.05842208
 O    1.74557531   9.92522475   0.50376954   0.92701943  -1.01392802  -1.56519571
 O    1.86372397   9.56699774   4.54242904   0.64523909   0.66823927   1.04822535
 O    2.00624452   9.63285569   8.79358066  -0.52275702  -0.12843610  -0.51871933
 O    5.84876243   1.91203463   0.37805470  -0.61125558   0.04043126   1.26482528
 O    5.77359820   2.05811380   4.52772926   0.60455260  -0.80757503   1.99186414
 O    5.66090454   1.94348865   8.70640440   0.64952365   0.36959688  -1.48394824
 O    6.00767138   5.79383788   0.35056276  -2.02084344  -0.27090577   0.92723700
 O    5.85394819   6.01605287   4.50983768  -0.02337674  -1.12799163   0.45884022
 O    5.60334614   5.80926638   8.72332348   1.27673332  -0.80649971   3.38891216
 O    5.82631032   9.82527892   0.35316857  -0.43908694  -0.64985419   3.99484134
 O    5.99728816   9.71612047   4.54992230  -0.37512412  -0.22818579   0.56026357
 O    5.82775016   9.57707660   8.74988032  -0.00398329   0.64617216   0.19809352
 O    9.60857745   1.79483416   0.45281282   0.57533481   1.53500720   0.04816772
 O    9.73626650   1.88945375   4.59731317  -0.44078570   0.44017481   0.25781363
 O    9.65276760   1.96775519   8.72933305   0.47715835  -0.32539572   1.56845515
 O    9.67747897   6.00994234   0.42138100  -0.36143783  -1.05238019  -0.09241910
 O    9.68623505   5.64432884   4.56014606   0.57705030   0.79042009   2.22425499
 O    9.89427409   5.71728064   8.69917296  -1.01163093   0.32263001   2.11725420
 O    9.72145841   9.71173072   0.42969715  -0.05213428  -0.08601737   1.98341220
 O    9.67397887   9.96294148   4.66789452   0.39894857  -0.68647789  -0.85464651
 O    9.51423880   9.68364803   8.73373426   1.28107645   0.11564102   0.38724555
 O    3.89473838   1.90583045   2.55914428  -0.56667784   0.17572097  -1.31127751
 O    3.87624290   1.98896646   6.67223773   1.65677379  -0.57412978   0.17395108
 O    3.80549183   1.83596904  10.87981369   1.72586636   0.36795670   0.22169620
 O    3.69669627   6.00426493   2.43567367   3.16476824  -0.66231035  -0.33032044
 O    3.87657067   5.78281082   6.56372873   0.51331343  -0.44248445   0.31173453
 O    3.82813124   5.84740453  11.02037792   0.68875825  -0.52720475   0.14808896
 O    3.92250501   9.70831257   2.63629626   0.17517285  -1.00571876  -1.35389707
 O    3.94883180   9.47583141   6.58403910  -0.66815977   1.82879599  -0.16006813
 O    3.81315926   9.66704892  10.86947772   2.86157771   0.59307553   0.70495502
 O    7.75476847   1.99745331   2.56560270  -0.80410638  -0.49945559  -0.49389906
 O    7.75568153   1.83684699   6.72573792  -0.72840708   0.39078532  -0.33956319
 O    7.78837639   1.97385401  10.80434489  -2.99842810   0.99219983  -0.19810189
 O    7.73372108   5.75425989   2.45916338  -0.34875991  -0.45864357   0.69886711
 O    7.81219810   5.94058429   6.83828656   0.63708004  -0.95554265  -1.02666870
 O    7.75131520   5.57485373  10.78273784  -0.43140487   1.23182504  -1.18002130
 O    7.83241436   9.77076408   2.53161493  -1.72105460   0.57425530  -0.00205859
 O    7.79747195   9.56816834   6.76168316  -0.21127772   0.75589682  -0.77339486
 O    7.73756065   9.85804402  11.04269564  -1.63094933  -1.66844334  -1.95578438
 O   11.64639305   1.81354034   2.48982220   1.28828152   1.03300348   0.24140346
 O   11.59479300   1.86622905   6.69798415   2.22338051   0.01531392  -0.05893349
 O   11.69532413   1.83033845  10.87276927  -0.56852723   0.50055183  -0.40391931
 O   11.66163426   5.82018808   2.46620780  -1.13519670  -0.80825704   1.00238819
 O    0.05035921   5.60557028   6.68319710  -2.15627122   0.79795152   0.13345706
 O   11.62687915   5.87810937  10.92492292  -0.04021369  -0.30530770  -0.83439949
 O   11.65073597   9.85549211   2.63457568  -0.13011812  -0.09737311  -0.12074148
 O    0.12067715   9.86841553   6.77598396  -2.91938985  -0.80433651  -0.08059892
 O   11.58119063   9.65295490  10.82479241  -0.02883285  -0.01828465  -0.55630957
 O    1.97280047   3.81802896   2.47150670  -1.02474819  -0.13488385  -0.33600668
 O    1.93740153   3.79954519   6.73289455  -0.09949446   0.61270747  -0.16905146
 O    1.87809893   3.77614489  10.82056576   0.36407383   0.55448110   0.75259554
 O    1.67968223   7.76846449   2.36236183   1.52147572   0.82545800   0.05356943
 O    1.83910625   7.72562053   6.64785032  -0.03183287  -0.20841577   0.70286295
 O    1.93093982   7.77031403  11.03864354  -0.03518855  -0.99384001  -0.36627050
 O    2.04375054  11.66797891   2.57802083  -0.93749231  -0.17734023   0.50032170
 O    2.04067186  11.65635485   6.67438223   0.32987274   0.14613079   0.10549869
 O    1.81304869  11.56995287  10.81287300   0.67885022   1.79713885   0.11497575
 O    5.63690724   3.89540562   2.56081499   1.25426453   1.18530586  -1.50045464
 O    5.98214059   3.87986005   6.61311448  -0.69110973   0.48435506   0.67033133
 O    5.63097230   3.84533906  10.91078420   0.68693815  -0.30058382  -0.91035403
 O    6.03075561   7.75090549   2.51904719  -1.93521937   1.71463615  -1.25234820
 O    5.80214914   7.70083892   6.74794343   1.06897027   1.15101690  -0.56694144
 O    5.78715375   7.69269155  10.93188006   0.83892254   1.53904070  -0.58474074
 O    5.76090890   0.02904259   2.64664470   1.99998136  -1.01920003  -1.81618502
 O    5.84173883  11.68027021   6.67854654  -0.35968886  -1.02625866  -0.17142805
 O    5.82584208   0.02722816  10.76297606  -0.73700547  -1.81562853  -0.01646874
 O    9.76331906   3.91570382   2.51535666   0.00387451  -1.62758948  -0.27705226
 O    9.66861752   3.82779176   6.73094954  -0.24043275   0.67709289  -0.28691008
 O    9.82580569   3.84437917  10.98726292  -0.48505799   1.05003708  -0.25277593
 O    9.70372382   7.76770360   2.61486377   0.26344128   1.44387263   0.16698032
 O    9.95389274   7.77370877   6.61706683  -0.15182958  -0.66550284   0.25170480
 O    9.51844125   7.78165715  10.80847180   0.17120211  -1.05778609  -0.58048548
 O    9.72543845   0.05498308   2.53657720  -0.96632097  -1.55994881   0.54894549
 O    9.69172517  11.63956845   6.82639208   0.60720116   0.81005203  -0.53657720
 O    9.57196108   0.01995873  10.93959775   1.17509658  -1.00096140  -1.20832277
