# total energy = -399028.06995756
CRSYTAL
PRIMVEC
 11.70600000   0.00000000   0.00000000
  0.00000000  11.70600000   0.00000000
  0.00000000   0.00000000  12.46800000
PRIMCOORD
135 1
Pb    3.75945214   3.86267564   4.00307582   0.38444398   0.39066946   1.14659611
Pb    4.09295608   3.93261899   8.42647286  -1.97812599  -0.97757116  -0.72173274
Pb    3.91123213   3.90094256   0.03421219  -0.26708388  -0.52656080   0.17257105
Pb    3.83700439   7.82007624   4.15739226   0.44094402  -0.15992211  -1.09380496
Pb    3.94206574   7.66719588   8.15347354  -0.31051702   1.59739970   2.36984696
Pb    3.95414633   7.82657307   0.04650564  -0.88721598   0.26778342   0.38617743
Pb    3.91047124   0.02121127   4.02202718   0.43427858  -0.56772813   2.19709553
Pb    4.00111080   0.05073380   8.33681548  -0.95958108  -0.41181847  -0.64509120
Pb    3.94762609   0.15284524   0.03722945  -1.31091785  -1.79806237   0.32672525
Pb    7.78544989   3.72165346   4.08007819  -0.07666793   1.94147268   1.48369568
Pb    7.71311852   3.94673643   8.31262756   1.21561309   0.03553580   0.08752622
Pb    7.78780280   3.91988287  12.38280616   0.05436622   0.12044424   1.28228947
Pb    7.81052414   7.66069905   4.15903804  -0.61120526   1.10966123   0.07444172
Pb    7.76655641   7.83534086   8.40142465   0.92205665  -0.72899213  -0.75918238
Pb    7.78891487   7.89904492   0.00254347   0.34708233  -1.26528050   0.80481973
Pb    7.76609987   0.02030991   4.21656539   0.09643987  -0.94613142  -0.02847440
Pb    7.96243291  11.64257689   8.29128234  -1.81813348   0.05517575   0.80091286
Pb    7.55436175  11.67857284   0.13516559   2.44707805  -0.55339413  -0.96581096
Pb   11.53962262   3.91212179   4.14736799   0.40301042  -0.36625152   0.48283288
Pb    0.04143924   3.88646224   8.34324896  -0.22864432   0.45478525   0.07775024
Pb    0.05805005   3.70726679   0.00167071  -0.85395039   1.57872327  -0.66045031
Pb    0.09433865   7.85389487   4.10611138  -0.88327832   0.00059395   0.77441830
Pb    0.09358947   7.75984887   8.28987346  -1.36131120   0.39220933   0.44261148
Pb    0.01568604   7.88367494  12.45239006  -1.27093843  -1.67197781   0.82792218
Pb    0.00114719   0.08945725   4.22163986  -0.97267878  -1.12308449   0.33765833
Pb    0.07532811   0.18969573   8.32094371   0.21365918  -2.01650835   0.12309282
Pb   11.64881619   0.07160560   0.13597601  -0.80462615  -1.16850626  -1.22498430
Ti    1.85016842   1.79213007   2.22012689   1.08122642   2.07528740   0.82602154
Ti    1.99568570   1.94969283   6.34167365   0.59133213   0.03839996   0.66892399
Ti    1.91417683   1.81735650  10.49621074   0.57931235   0.08798818  -0.22836714
Ti    1.77057932   5.70579705   2.11535828   3.24843087   2.43167934   1.58069430
Ti    1.97624204   5.84111841   6.29821020  -1.88720326  -1.87124140  -0.62939333
Ti    1.95963122   5.76714820  10.60072998  -2.67852493   0.31878832   1.85767295
Ti    1.91537084   9.73249717   2.20809527   0.30112381  -1.65571238   1.41133059
Ti    2.03054617   9.73287176   6.39639570  -1.72579407   1.54561166  -0.55897726
Ti    1.86137106   9.68045229  10.57625530   2.19397619   1.05130455  -3.04705985
Ti    5.82999771   1.99954868   2.18671265  -1.60757604  -1.24453625   0.46275298
Ti    5.78810194   1.98215357   6.34411738   0.62208994  -1.03008514   0.74157946
Ti    5.82911976   1.83175488  10.46975364   0.19330650   2.68381768  -0.45929487
Ti    5.80035812   5.82506948   2.16430765  -0.10548990   1.74328259   0.29418999
Ti    5.83082884   5.87700901   6.29547971   2.13909522  -0.56784692  -2.03822052
Ti    5.75293711   5.80230131  10.62302276   2.34004387  -0.23487419  -1.72224797
Ti    5.91240795   9.68638723   2.24832950  -1.22347963   0.81284905   1.04654415
Ti    5.86880310   9.75767677   6.34248407   0.90232431   0.19728376  -2.35779637
Ti    5.77197107   9.70368870  10.53800347  -0.52467336  -0.72157435   0.33804549
Ti    9.68403433   1.95006742   2.18299718   0.09999477  -1.96930473  -0.07670753
Ti    9.69177199   1.93159535   6.45504517  -0.31466147   1.05822516  -1.66631548
Ti    9.68930203   1.94112404  10.57724027  -0.20168339  -1.23113498  -1.32167935
Ti    9.72481803   5.89940258   2.22892930  -1.85499357   0.44496088  -4.39918903
Ti    9.82709335   5.78514032   6.38309234  -1.59339163   1.82337344   2.71330840
Ti    9.70825404   5.80238326  10.54908752   1.33866631   0.23957740  -1.63643760
Ti    9.73384336   9.80324823   2.24271890  -0.65242098  -0.01450558   1.93432328
Ti    9.85063412   9.79309913   6.39341585  -0.28850567  -2.58212026   0.26096399
Ti    9.69619686   9.71779443  10.55200504  -0.63470368   0.89204238  -1.36128921
 O    1.86636952   1.66391425   0.43518307   0.16669754   1.10845133  -0.80829104
 O    1.96513304   1.91050114   4.53565891  -0.23021939   0.35067683  -0.82725784
 O    2.05625255   1.79889614   8.69640506  -0.91642072  -0.03872113   0.80661918
 O    1.71138208   5.64911660   0.36907774   0.97907144   0.21664213  -1.72074330
 O    1.89514287   5.84978085   4.49508804  -0.02838641  -0.40443590   0.92268139
 O    1.92409181   5.67923614   8.84093412   0.15367024   1.10437727  -1.72857463
 O    1.78276527   9.88783579   0.46000686   0.24350627  -0.64294418  -1.43980499
 O    1.88563760   9.47579629   4.57227743   0.27926205   1.46762824   0.53133879
 O    2.04423049   9.63157974   8.74347176  -0.93203940  -0.27679386   0.83481200
 O    5.79724432   1.93664064   0.35748250  -0.17141395  -0.53981688   1.33349675
 O    5.73982639   1.97995284   4.57747658   0.53569003   0.15279032  -3.00587052
 O    5.66459193   1.97889930   8.63829172   0.75669659  -0.36501082   2.80979226
 O    5.93586677   5.75882523   0.34785720  -1.15041499   0.34122203   0.93143226
 O    5.84738112   5.93470788   4.42153931   0.14050655  -0.28872125   4.01964624
 O    5.58101109   5.78393460   8.74520482   1.17084247   0.14827630   0.90963649
 O    5.81671140   9.78578288   0.42586948  -0.28711099   0.14658684  -0.39890556
 O    5.98092317   9.63723374   4.48660980  -0.81738067   0.11620300   3.25543068
 O    5.78633433   9.60280639   8.75631380  -0.00537195   0.39193215   0.15000095
 O    9.62701440   1.82377139   0.40999771   0.41331435   0.71602642  -0.26258306
 O    9.69941601   1.96612805   4.57793790  -0.04850151  -0.23707401   1.51884872
 O    9.63458818   1.99611883   8.72733817   0.65125948  -1.03610823   0.79932460
 O    9.57163331   5.99100203   0.35942750   0.75846964  -1.16257996   3.50080239
 O    9.78223596   5.66699166   4.60165204  -0.63676710   0.25284228  -2.11123677
 O    9.80430177   5.71111157   8.69310104   0.10320210  -0.05000178   1.86330447
 O    9.70107826   9.69824541   0.48443167   0.27429047  -0.05181443  -2.38834300
 O    9.69410149   9.97968106   4.61099057   0.27809175  -1.33629491   1.24830673
 O    9.58551663   9.61007582   8.70533215   0.36405610   1.02028716   2.31459202
 O    3.86932465   1.88564930   2.47502268  -0.34145081   0.38773930  -0.34319746
 O    3.94076637   1.96629194   6.67724987  -2.00138243  -0.50655568   0.01674939
 O    3.83445248   1.84497095  10.89172063   0.42430022   0.16305025  -0.34598242
 O    3.81918785   5.95831888   2.41881694   0.14230600  -0.30873517  -0.28623986
 O    3.88034000   5.80740513   6.57216956   0.57398000  -0.34603962  -0.17230267
 O    3.82555592   5.80406892  11.00259856  -0.92640788   0.35255987  -0.00692942
 O    3.94400893   9.72156376   2.57369443  -2.75044566  -0.82381733  -0.55632869
 O    3.87901722   9.53043990   6.58080989   0.80591084   0.64973721   0.02549145
 O    3.83968506   9.65707541  10.85402987   1.05291921   0.61412221   0.84053152
 O    7.70708993   1.96351762   2.51641644  -0.01281172  -0.23468061  -0.21713049
 O    7.66095658   1.81255704   6.74180917   3.88712061   0.14901983  -0.37885645
 O    7.70670363   1.99321574  10.81833398  -0.73439487   0.08707306  -0.41899427
 O    7.76430886   5.76250091   2.47370107   0.65706699  -0.01406121   0.99875098
 O    7.83806836   5.85226252   6.90905492  -1.45516409   0.44846738  -2.40497360
 O    7.73459903   5.57319148  10.80601560  -0.92509679   1.27973328  -1.59370401
 O    7.77457502   9.78765584   2.55935623   1.43500059   0.23587291  -0.37162786
 O    7.72690819   9.59017562   6.76165823   1.88905990   0.90915693  -0.58218531
 O    7.73041999   9.80402083  11.03279605  -0.57338165  -0.74838569  -1.66559835
 O   11.64292807   1.85291933   2.45592170   0.99060287   0.05349949   0.32096613
 O    0.01465591   1.83250406   6.64108020  -1.34118730   0.36443447   0.14141288
 O   11.63600983   1.83313619  10.85527667   0.99827582  -0.04582214  -0.27696544
 O   11.63884268   5.77284902   2.41389208  -1.88052462  -0.38761171   1.24021582
 O    0.00724601   5.65197286   6.63017070   1.30168303  -0.27113594   0.47569229
 O   11.59293175   5.86593513  10.88715734   1.73242871  -0.19390045  -0.19034115
 O   11.60166442   9.88336409   2.65186879   2.65094365  -0.51826750  -0.53488929
 O    0.03169985   9.86226988   6.79897495  -0.51270197  -0.72075602  -0.55662346
 O   11.59632649   9.66823123  10.74984726  -0.18763098  -0.06849342   0.41382910
 O    1.89813961   3.85427074   2.49426080  -0.09523877  -1.67606946  -0.26975005
 O    1.93838483   3.76476666   6.82605545   0.30506148   2.36489298  -1.43626768
 O    1.88184485   3.75558916  10.84917982   0.05306393   1.01642869   0.28482318
 O    1.70548226   7.77486767   2.38686145   1.05780720   0.64531118  -0.36854372
 O    1.81811739   7.72006018   6.59947448   0.33123487  -1.06299436   0.88759875
 O    1.87777117   7.78721750  11.06510064   0.76930593  -1.19249304  -1.12439998
 O    2.01637021  11.63872562   2.54302315  -1.06466182   0.49564900   0.75872922
 O    2.01939035  11.67389044   6.64765084   0.40348558  -1.06680004   0.06962413
 O    1.86226072  11.60358421  10.78352333   0.02243811   0.48220374   0.37868927
 O    5.62898228   3.95743571   2.49093185   1.30395764  -2.83216877  -0.33905741
 O    5.98443497   3.86254688   6.56117279  -1.09902292   3.20681478   0.64029561
 O    5.62425305   3.89822677  10.90104670   0.39587422  -2.18268234  -1.03317368
 O    5.94032676   7.82271009   2.48362560  -0.42790352  -2.01801743  -0.52416740
 O    5.85156016   7.77596803   6.71657394  -0.26356857  -2.38913933  -0.57132702
 O    5.73187802   7.68971822  10.91274168   1.17110204   1.86056350  -0.35694630
 O    5.79547672  11.67562293   2.71924586   1.17372422   1.95798889  -2.59518276
 O    5.83125025  11.63973233   6.65418407  -0.74104271  -1.04641216   0.08584556
 O    5.83100443  11.67387874  10.76711544  -0.62626959   0.02627898   0.05871745
 O    9.72659734   3.80854710   2.47747888   0.12631775   1.85819210   0.21157376
 O    9.69191246   3.79198311   6.69848287  -0.00973198   0.28770494  -0.06073688
 O    9.83774581   3.83058950  10.92419977  -0.84372125  -0.16768306   0.36710064
 O    9.74547912   7.82599948   2.57179930  -0.21522545  -1.59738650   0.43487253
 O    9.97718768   7.72979957   6.68223707  -1.10538919   0.53635877  -0.79923660
 O    9.50730884   7.70995790  10.77598019   0.40080180   2.26444065  -0.08401532
 O    9.71509034   0.00380445   2.58715987  -0.77363956   1.40381162  -0.40371876
 O    9.72953555  11.66161085   6.78986084  -0.17302861   0.82456527  -0.05772753
 O    9.61313108   0.01388332  10.97710150   0.27875169  -1.59338723  -1.51568539
