# total energy = -399027.86859330
CRSYTAL
PRIMVEC
 11.70600000   0.00000000   0.00000000
  0.00000000  11.70600000   0.00000000
  0.00000000   0.00000000  12.46800000
PRIMCOORD
135 1
Pb    3.72985937   3.85890631   3.98330158   0.67530524   0.53051536   0.48046523
Pb    4.12236155   3.94366946   8.44633439  -2.25575884  -1.13450246  -0.52886019
Pb    3.90838757   3.89734882   0.04466038   0.13567233  -0.32206721  -0.50132885
Pb    3.82689040   7.81725509   4.15937467   0.37994648  -0.13085259  -1.32590046
Pb    3.94486347   7.64394776   8.13421048   0.02993415   1.83718856   2.31044062
Pb    3.95891067   7.83413515   0.05929781  -0.99223295  -0.01908620   0.05701407
Pb    3.91282415   0.02657262   4.01465860   0.72973781  -0.63493222   1.06429403
Pb    4.01756944   0.06187792   8.33752615  -0.46395584  -0.93417969  -0.06446705
Pb    3.95010776   0.17330733   0.04928600  -1.49518406  -1.64742221  -0.17406573
Pb    7.78156350   3.70498412   4.07764693   0.28386660   1.44291450   0.71300271
Pb    7.70502967   3.95853608   8.31884909   0.98032700  -0.22346695   0.12651717
Pb    7.78807204   3.91925074  12.37901588  -0.34064086   0.83213273   0.52007179
Pb    7.81325164   7.63685393   4.16880048  -0.11841999   1.17989741  -0.10590276
Pb    7.76327873   7.84030421   8.42396680   0.86780826  -0.03896706  -1.07871566
Pb    7.79267249   7.91803205   0.01321608   0.32704212  -1.36586439  -0.14597013
Pb    7.76504633   0.02076644   4.23354680   0.29873963  -0.65536795  -0.33510638
Pb    7.98753057  11.63153813   8.30111959  -1.71591433  -0.33431171   0.01095611
Pb    7.51737079  11.67366803   0.15854309   1.78927793  -0.87876436  -1.21264348
Pb   11.51207840   3.91839620   4.15225544   0.13212218  -0.15215351   0.01838557
Pb    0.05179905   3.88542040   8.35672687   0.59155921   0.80213275  -0.33150450
Pb    0.06705197   3.67252338  12.46793766  -0.49738842   1.87334371  -0.37277094
Pb    0.10948622   7.86160913   4.10405416  -1.41327658  -0.26456411   0.78522837
Pb    0.11633423   7.75521329   8.29069634  -1.47439097   0.14677421   0.77061866
Pb    0.01231471   7.89668030  12.45802560  -0.64398394  -1.15188646   0.09628678
Pb   11.70474746   0.10513159   4.24100267  -1.03340534  -0.94462796   0.31780232
Pb    0.09389383   0.22027180   8.32717771  -0.19648107  -2.26188579  -0.25506568
Pb   11.63582253   0.07930815   0.15602455  -0.02903603  -1.31539577  -1.44315901
Ti    1.85060154   1.79807672   2.24794300   1.04661850   2.16330905  -1.59079372
Ti    2.02613301   1.93570416   6.30597776  -0.78180988   1.30931113   1.31413088
Ti    1.89631347   1.78810321  10.50618514   2.03887025   2.32859108  -0.28277099
Ti    1.79629741   5.74370108   2.15372232   0.48711413   0.60192754  -0.57057333
Ti    1.97949631   5.84611687   6.27036916  -1.79681084  -3.23670653  -0.38071294
Ti    1.95441035   5.77379720  10.60904614  -2.11533259  -0.03165045  -0.65785541
Ti    1.90360631   9.74217803   2.19256014   0.64944319  -1.02069531  -2.11027773
Ti    2.04934601   9.72502874   6.41418754  -2.68400153   1.70426230   0.13031654
Ti    1.87386136   9.69051945  10.51946356   1.76051462   0.07028366   0.11063786
Ti    5.79911728   2.00412573   2.16826001  -0.57138681  -0.64409209   1.40922800
Ti    5.78029403   1.96163295   6.31970503   2.21710682   0.38755463   0.70841337
Ti    5.85074074   1.83601586  10.47196048  -3.24770495   1.98255681  -0.19796226
Ti    5.82878029   5.84168030   2.17632680  -0.11230714   0.39086967  -0.58622692
Ti    5.81213435   5.87939703   6.25050763   2.61948276  -1.02879719   0.66186638
Ti    5.75588702   5.82764480  10.56235348   2.25456448  -0.55436017   3.33678797
Ti    5.87627153   9.68178677   2.24972592  -0.51378026   1.35553367   2.57310504
Ti    5.86335981   9.75300608   6.28551778   1.08609339  -1.34418258   2.38063024
Ti    5.74848883   9.70059832  10.54931195   0.62040715  -0.60326766  -1.38790826
Ti    9.68973515   1.91044261   2.12879879  -0.59279118   0.05518962   1.05778620
Ti    9.72425614   1.93590316   6.44649212  -0.74060927   0.64871905  -1.49209942
Ti    9.68202089   1.90712981  10.54709264  -0.10303442   0.06937143   0.89589915
Ti    9.69167834   5.91306349   2.18203715  -0.45851540  -0.60682252  -0.80519388
Ti    9.80315458   5.79381446   6.38470072  -1.19249458   1.31139420   1.08885358
Ti    9.75448103   5.81208753  10.52425127  -0.26079295   0.20582433   1.01494924
Ti    9.73721468   9.78832308   2.25315462  -0.81592428  -0.19275224   1.02207776
Ti    9.85823131   9.77874757   6.36629795  -2.16762096  -1.82435628   1.30199922
Ti    9.69363325   9.73721468  10.55131930  -0.51366740  -0.15717545  -0.54146676
 O    1.89198225   1.71874516   0.40968601  -0.67858737   0.44162043   0.27895751
 O    1.89885367   1.89940385   4.48516351   0.94019850   0.23143246   0.07964102
 O    1.97577380   1.80820241   8.68259052  -0.34816907   0.08795920   1.11284416
 O    1.73019362   5.65870381   0.36506304   0.76515942   0.64101216   1.19087703
 O    1.98120538   5.81540033   4.40935807  -0.33726469   0.04685264   2.00613360
 O    1.90525685   5.76351934   8.77762162   0.31863461   0.61929744   0.54812977
 O    1.83256259   9.82053799   0.36227021  -0.47496367  -0.12812532   1.72034850
 O    1.92082583   9.44313655   4.62365806  -0.16103125   1.51888310  -0.92016246
 O    2.04487432   9.61887873   8.71953320  -0.69559049  -0.17463469  -0.08717863
 O    5.73686477   1.93838483   0.38652047   0.59487425  -1.05573605  -0.92643518
 O    5.72794480   1.90311466   4.52976155   0.26505784   0.69308893  -0.48855300
 O    5.70055276   2.00119923   8.66319031   0.38679287  -0.76249327   0.16618015
 O    5.81172464   5.73640824   0.38250577   0.47264549   0.68791652  -0.20946382
 O    5.84670217   5.83676378   4.47931602   0.29848571   0.65869240  -0.49586021
 O    5.60801683   5.76241897   8.80249528   0.50426302   0.78957320  -3.06154519
 O    5.79542989   9.74972840   0.49059086   0.34888380   0.63699648  -2.73828833
 O    5.92911241   9.55998584   4.53587087  -0.76119547   0.42695429  -1.64937832
 O    5.74326796   9.64659854   8.76486685   0.14997640  -0.04462380  -0.93344615
 O    9.66408730   1.88484159   0.35482681   0.06257206  -0.52221129  -0.26187445
 O    9.65851525   2.03524028   4.61489305   0.31572865  -1.05028150  -0.02248588
 O    9.64370716   1.98201310   8.75769775   0.56126299  -1.06721880  -0.97238030
 O    9.49116627   5.92229952   0.42190465   0.94242263  -0.43746369  -0.87320167
 O    9.85572623   5.70491910   4.57849896  -1.55064641   0.32118319  -0.37349037
 O    9.71278426   5.70349097   8.75723644   0.78394467  -0.17896071  -1.61498649
 O    9.69122181   9.68325002   0.46294931   0.39243080   0.28107820  -0.66891026
 O    9.72786159   9.93991578   4.59342316   0.19972559  -1.32099137   0.13141685
 O    9.67504412   9.57692443   8.76193687  -0.94229567   1.42437846  -0.27063934
 O    3.82697234   1.87907053   2.37406928  -0.07889807  -0.07792942   1.29724060
 O    3.93920947   1.92094289   6.68213732  -1.08570311  -0.12305635  -0.42095900
 O    3.88159254   1.86097306  10.89042396  -1.63128429  -0.19033061  -0.56730060
 O    3.95013117   5.89553960   2.39258426  -3.67661065  -0.23360958   0.73116727
 O    3.90367006   5.81825659   6.57470057  -0.86288036  -0.05497802  -0.28608133
 O    3.79314200   5.77289584  10.98331056   0.14130086   0.83363743  -0.27956410
 O    3.86165722   9.70127726   2.48492227  -1.11613570   0.10978207   0.77035064
 O    3.84291592   9.61670141   6.57835369   2.13700029  -0.67498079   0.16455790
 O    3.90542596   9.67318286  10.87493870  -3.04077091   0.37905306   0.71239142
 O    7.66256030   1.91753645   2.45620847   2.10768213   0.05852348   0.30167380
 O    7.70355472   1.79657835   6.73982676   0.96178626   0.47344016  -0.68155915
 O    7.60247341   2.01867629  10.81849607   4.70172133  -0.64677704   0.31756251
 O    7.81185863   5.76961816   2.53342279  -1.36696470   0.28489168   1.15903849
 O    7.81376671   5.77829231   6.88126375  -0.28965030   1.47263705  -2.23367735
 O    7.68123137   5.62673473  10.76488367   0.03161754   0.74511397  -0.49006240
 O    7.76425033   9.81312809   2.57361962   1.41359163  -0.76228168  -0.34313773
 O    7.73075946   9.65193647   6.73648534   2.19849555   0.52855925  -0.10954696
 O    7.69794754   9.71425922  10.95191614   0.75938983   0.36418474  -0.26831175
 O   11.67478010   1.89673489   2.43478844  -1.48399755  -0.92991010   0.35905464
 O    0.09763975   1.81347011   6.58860239  -2.25260837   0.70312340   0.51060628
 O   11.61275000   1.83481015  10.82421888   1.16587078  -0.41350132  -0.18821462
 O   11.55577690   5.70714324   2.41185979   2.85316757   0.40933048   0.65124883
 O    0.00479946   5.69101237   6.59588370   1.25969360  -0.71002622   0.72834126
 O   11.62325029   5.84447803  10.83802096   0.60885387  -0.06691219   0.28144027
 O   11.65025603   9.89043452   2.64671951   0.93943674  -0.69277388  -0.71778484
 O   11.62651626   9.82430732   6.80054592   3.12729123  -0.43068313  -0.44065177
 O   11.61106434   9.68072153  10.68886627   1.26500708  -0.20170991   1.13548521
 O    1.81650196   3.83248587   2.50488354   1.11204949   0.27092617  -0.36576467
 O    1.95258421   3.81893032   6.85991854   0.58128492   0.36051232  -2.41013649
 O    1.88820121   3.77514988  10.89043643  -0.25529609   0.27399200  -0.57213445
 O    1.77858623   7.80311425   2.39861878   0.17820836  -1.35077976  -0.15666762
 O    1.81090649   7.67705233   6.58703142   0.68057640   0.51761725   0.65068927
 O    1.85432405   7.75777691  11.04380530   0.96739127   0.25213621  -1.47868407
 O    1.94314918  11.62800292   2.54015551  -0.35945433   0.64530996   0.90367658
 O    2.01399389  11.65219922   6.62251535   0.10670683  -0.40251700  -0.06332441
 O    1.91583908  11.65616756  10.76806301  -0.38825055  -1.85729043   0.18456572
 O    5.67817089   3.91572724   2.40315713   0.94900570  -2.00523548   1.11046485
 O    5.93860598   3.95378344   6.53606224  -1.13819838  -2.01156933   0.79377695
 O    5.63482357   3.86925442  10.84708519   0.04062223  -0.74953874  -0.42073329
 O    5.82505778   7.82199602   2.42483898   0.87256217  -2.13620092   0.72266101
 O    5.89476701   7.76615840   6.66105394  -0.90895243  -1.36950859   0.20313938
 O    5.72412865   7.75591565  10.87820532   0.85092269  -1.17679397   0.29033211
 O    5.87872979  11.68266994   2.68550746  -1.11592880   0.44309691  -1.58123887
 O    5.78922571  11.56744778   6.63126788  -0.53277241   2.73233536  -0.00091223
 O    5.81043698  11.61544238  10.77642904  -0.00495141   2.38403462   0.68466730
 O    9.69218170   3.76167628   2.44638368  -0.14672718   1.35823743   0.51475831
 O    9.71602682   3.77558300   6.66494395   0.28242773   1.54288309   0.92023769
 O    9.81281203   3.81384992  10.87294382  -1.04789749  -0.27723181   0.56372694
 O    9.78011717   7.83345620   2.54587832  -0.56348242  -0.59478021   0.54011723
 O    9.95363521   7.70310989   6.71800776  -1.63785325   0.67021747  -1.01969375
 O    9.51364179   7.71674738  10.74068328   0.62422063   0.96265146   1.04644922
 O    9.67244539  11.70594147   2.62399034   0.18308453   1.33451958  -0.91118127
 O    9.76377560   0.00867415   6.74869151  -0.39944177  -0.84035216   0.36546843
 O    9.66850046  11.65294841  10.95106831  -0.73247448   0.53189310  -1.07226895
