# total energy = -399027.55566236
CRSYTAL
PRIMVEC
 11.70600000   0.00000000   0.00000000
  0.00000000  11.70600000   0.00000000
  0.00000000   0.00000000  12.46800000
PRIMCOORD
135 1
Pb    3.70170644   3.85705676   3.96487387   0.75050646   1.00754848   0.66718392
Pb    4.14472001   3.95147736   8.46463741  -2.36899653  -0.25875564  -0.90824074
Pb    3.90562496   3.89267812   0.05378695  -0.33896810   0.28773873  -0.88371305
Pb    3.81753731   7.81375500   4.15718030  -0.46818479  -0.48199089  -0.47040993
Pb    3.94749732   7.62613123   8.12220379  -0.79217028   1.20678291   1.68292194
Pb    3.96018662   7.84180258   0.07253882  -1.71735278  -0.38243762  -0.45599512
Pb    3.91727243   0.02994395   4.01114262  -0.38177263  -0.48730053   0.96051875
Pb    4.03271700   0.07009553   8.33792513  -0.41121609  -1.54697356   0.06353670
Pb    3.94741538   0.18851342   0.06109320  -1.83782237  -1.78765186  -0.65437018
Pb    7.77857847   3.69291523   4.07768434   0.70595762   1.14123080   0.08198746
Pb    7.70023021   3.96994943   8.32548206   1.11355722  -0.29078231  -0.29464945
Pb    7.78742821   3.92090129  12.37705841   0.06393569  -0.11066363   0.09827446
Pb    7.81561625   7.61625137   4.17867514   0.54355309   0.72866428   0.51587440
Pb    7.76295096   7.84499831   8.44349168   0.88372840  -0.00588767  -1.10202230
Pb    7.79762413   7.93301573   0.02377648   0.33783251  -0.76980635  -0.88362098
Pb    7.76501122   0.01912760   4.24980508   0.63862540   0.06836039  -0.70763543
Pb    8.00757124  11.61928195   8.31143063  -1.05095150   0.13543685  -0.21354694
Pb    7.48571776  11.66595377   0.17834227   1.41230911  -0.14898719  -1.29482173
Pb   11.48442883   3.92436626   4.15724264   0.05688174   0.28024487  -0.54016167
Pb    0.06430106   3.88707095   8.36935696   0.81051874   0.91814390  -0.84790109
Pb    0.07450869   3.64331691  12.46497028  -0.34355138   1.74322579   0.16998535
Pb    0.12040792   7.86862102   4.10469002  -1.09241072  -0.31157075   0.90410761
Pb    0.13486483   7.75108108   8.29407517  -0.57397357   0.15143228   0.62279365
Pb    0.00678948   7.90618558  12.46404764   0.45768827  -0.18261493  -0.92128467
Pb   11.69889446   0.11796136   4.26194891  -0.46773976  -0.81816094  -0.10803438
Pb    0.11209666   0.24370721   8.33275091  -0.94262044  -2.59505029  -0.35529602
Pb   11.62229039   0.08272630   0.17152228   0.55121065  -1.35654762  -1.89079093
Ti    1.86408685   1.83578174   2.25538639  -0.83417683   1.59639724  -2.07925261
Ti    2.04516697   1.93974273   6.28683938  -2.27909576   1.69308597   0.36034991
Ti    1.90606457   1.78913333  10.51391530   1.55719897   2.01887203   0.90197966
Ti    1.83289036   5.79304187   2.18719890  -0.45707444  -0.53988545  -1.16067904
Ti    1.95741879   5.80644524   6.23755338  -0.47319264  -1.83365343   1.25579226
Ti    1.91964353   5.78162852  10.60928303   0.22038093   0.65720915  -2.20601398
Ti    1.89878344   9.73712104   2.14954554  -0.57467436  -0.02055825  -2.20306247
Ti    2.03190407   9.73994218   6.43313890  -1.33425530  -0.03153560  -0.11275065
Ti    1.91188245   9.70254151  10.46184893   0.30308964  -0.53868848   2.35948725
Ti    5.76028848   1.99709042   2.16816026   1.37053275  -1.38278892   0.75794917
Ti    5.80221937   1.94462413   6.30431952   1.59928225   0.70559444  -0.52669318
Ti    5.83408310   1.87031444  10.47417978  -0.79286596   1.25677951   1.60576841
Ti    5.85369065   5.86393340   2.18171298  -1.57278007  -1.60172223  -0.05212454
Ti    5.82896758   5.86695355   6.21762952   0.73993832  -1.40188932   3.73497158
Ti    5.78908524   5.84582422  10.54032252  -0.42332904  -0.46335087   2.12459432
Ti    5.83134390   9.69572862   2.28180608   0.09575775   0.80827825  -0.64807840
Ti    5.87318114   9.73200551   6.26003318   0.30009209  -0.61027660   4.29627464
Ti    5.73087130   9.69041410  10.54174387   0.12098111   0.80796622  -1.85543934
Ti    9.68732371   1.87160210   2.08661954  -0.75536596   2.84149860   0.62953557
Ti    9.74796079   1.95062931   6.41852640  -0.26321104   0.48911645   0.77785777
Ti    9.67248050   1.87201181  10.52753035  -0.12734962   0.54857628   1.49582092
Ti    9.65400844   5.91740641   2.12806318   2.59296837  -2.14984326   4.81082930
Ti    9.76192605   5.82135868   6.40171954   0.14239873  -0.01920270  -1.72834037
Ti    9.80023979   5.82478854  10.51098532  -0.52671364  -0.02806745   1.61603474
Ti    9.73016767   9.77071726   2.27826517   0.35166419   0.06890772  -1.09500416
Ti    9.83876423   9.73743710   6.35723371  -0.63996048  -0.44980053   1.58597234
Ti    9.68564975   9.75561652  10.54432475   1.21053240  -0.65822709   1.19032199
 O    1.89019123   1.79495122   0.39165728  -0.95056444  -0.21533728   0.40527216
 O    1.87063051   1.89812790   4.44029118   1.47523710   0.05577173   1.83542331
 O    1.87908224   1.82319779   8.70947153   0.59619939   0.58276160  -0.73766203
 O    1.78326863   5.69514459   0.39902587   0.38882147   0.54322060   0.73067969
 O    2.05413376   5.78107834   4.40228872  -0.78186303   0.22259584   0.57399915
 O    1.89940385   5.87485510   8.73267448   0.31067557  -0.59585667   1.87570090
 O    1.86313867   9.74480017   0.32667407  -1.00861758   0.19944415   1.84137748
 O    1.95122632   9.47544511   4.64103845  -0.24487793   1.00845389  -0.99120522
 O    2.01626485   9.59815911   8.68745304  -0.02123858   0.00054222  -1.54773062
 O    5.69994405   1.89568135   0.38167042   1.01931871  -0.83259110  -1.48374378
 O    5.72869399   1.85316515   4.45733494   0.30619460   0.69669388   2.41813376
 O    5.75458766   1.99140131   8.69579413  -0.04406289  -0.80704036  -2.45929629
 O    5.70414650   5.74135988   0.40875091   1.74865820   0.34212933  -1.29737424
 O    5.85861888   5.76150590   4.50814204   0.14579526   0.71515486  -4.87146053
 O    5.66077577   5.77204130   8.75059099   0.34030319   0.52523533  -1.27963451
 O    5.78848823   9.73757757   0.46260020   0.78646676   0.25414167   0.85795770
 O    5.84369373   9.50010965   4.52380184  -0.16429717   0.99701104  -3.15675745
 O    5.70680377   9.69094087   8.73938226   0.57089930  -0.18211364  -0.37577243
 O    9.70611184   1.92621059   0.29146444   0.00460885  -1.25778210   0.78456389
 O    9.62900442   2.06192996   4.64777117   0.33073764  -1.20875229  -2.32106650
 O    9.67828668   1.92200814   8.74946887   0.46437392  -0.52046279  -1.57500521
 O    9.44632058   5.83130878   0.43803824   0.38767565   0.25157381  -5.11475273
 O    9.86443549   5.75801752   4.53942425  -1.71383348   0.38210512   2.22335472
 O    9.65105852   5.68973642   8.76369486   0.77540245   0.25902675  -2.01188970
 O    9.69748452   9.67898904   0.41393760   0.25643331   0.33231314   2.31748582
 O    9.77076408   9.84225262   4.58089282  -0.00497204  -0.74138082  -1.02147735
 O    9.72809571   9.60297028   8.80410365  -1.47965668   0.97997210  -3.21857542
 O    3.78507657   1.86961208   2.32377337   1.26443194  -0.37161372   1.76940060
 O    3.89430526   1.86947161   6.67006830   1.23530563   0.39042254  -0.47542801
 O    3.86722928   1.87027933  10.86430350  -1.16896576  -0.20816056  -0.59051122
 O    3.94222962   5.81774153   2.39550178  -2.32488249  -0.76826665   1.07340240
 O    3.89770000   5.82657956   6.56529970  -0.20708124   0.14089995  -0.15531477
 O    3.76893400   5.77425374  10.95226524   1.84491213   0.35062579  -0.29052143
 O    3.74448016   9.68363632   2.42578655   4.34574948   0.65397119   1.42503589
 O    3.89077004   9.67815791   6.58234345   1.19007646  -1.21367317   0.09670407
 O    3.86444325   9.70583090  10.92497279  -0.80836521  -0.09555825  -0.13188174
 O    7.69781878   1.87184793   2.40681025   1.03927847   0.11325707   0.56875600
 O    7.78923093   1.80052327   6.70923029  -2.58946442   0.67899506  -0.64698374
 O    7.66848354   2.01589026  10.82827098   1.94659847  -1.23089115   0.14829663
 O    7.80667287   5.78882771   2.63976236  -1.64202540   0.31122291  -0.43126281
 O    7.77655333   5.76165808   6.75725702   1.02241344   0.88323222  -0.96966484
 O    7.63049757   5.71427219  10.70102257   1.60380415  -0.00275201   0.71005495
 O    7.80691870   9.80721656   2.57268452  -1.11470816  -1.31449503  -0.34664611
 O    7.82005283   9.73730833   6.70332046  -0.72660794  -0.27337507  -0.15696700
 O    7.69039717   9.63616849  10.85341894   0.20413997   0.95896371   0.31949941
 O   11.65059550   1.90344242   2.42856691  -1.69399137  -1.02285336   0.28001980
 O    0.09124827   1.82440351   6.55655963  -0.87537517   0.80902508   0.61349922
 O   11.63782426   1.82016594  10.78576757   0.42157962  -0.26208568   0.31961706
 O   11.57039770   5.65945300   2.43816727   1.44314904   1.47193263  -0.07085664
 O    0.04831066   5.70251937   6.59174432  -1.39684567  -0.32353535   0.59384126
 O   11.67365632   5.81907601  10.79888390  -2.27822105  -0.02924908   0.44794369
 O    0.02734522   9.86653087   2.61200860  -2.90266693  -0.90773433  -0.36641149
 O   11.63332915   9.76540273   6.78128286   2.36457182  -0.27359502  -0.53845829
 O   11.67132683   9.68449086  10.67547564   0.05225754  -0.35089178   1.43158855
 O    1.78014313   3.81383821   2.50096859   1.66938184   0.42894560  -0.13074615
 O    1.99052336   3.88896732   6.79405009   0.21732712  -2.21703737  -1.64203052
 O    1.88477135   3.80710726  10.90926311  -0.22410484  -0.52466242  -0.94349515
 O    1.86216707   7.77957348   2.40456601  -0.57075607  -1.32495063   0.28942165
 O    1.83297230   7.65395639   6.60256655   0.79116769   1.62352349   0.18058929
 O    1.87016227   7.73434150  10.96189054   0.33874814   0.67149097  -0.39720538
 O    1.85357486  11.64473080   2.57502851   0.74044473   0.40733361   0.32109025
 O    2.01312764  11.61705781   6.59509822  -0.22529158   1.52086525   0.07387976
 O    1.95469129  11.64196818  10.76093131  -0.49179685  -0.73877204   0.08604898
 O    5.76989911   3.79840970   2.35858403   0.35275374   2.55205137   1.46440297
 O    5.84427903   3.96647275   6.54694680  -0.30993898  -4.88363997   1.02808116
 O    5.64957313   3.80817251  10.77327463   0.17879383   1.34872638   0.30410758
 O    5.74308066   7.74319123   2.39249699   1.41748065   1.72630450   0.88773877
 O    5.90421375   7.70721869   6.61114453  -0.16858376   2.42083973   0.46531513
 O    5.75292541   7.78106014  10.85359349   0.12168702  -1.86172089   0.40113902
 O    5.92109380  11.70272232   2.58042715  -1.82421065  -2.68569277  -0.42811181
 O    5.72691467  11.59447694   6.60565861   0.79359744   1.81647637  -0.51913794
 O    5.78783270  11.64512880  10.81308496   0.33700384   0.78528514   0.49309613
 O    9.65081270   3.77435387   2.43642175  -0.27683299   0.61503891   0.50373076
 O    9.75157795   3.82062769   6.66854720   0.11755900   1.08167378   1.12372125
 O    9.74389881   3.79202993  10.84388092  -0.35343918   1.43500043   0.29851148
 O    9.79122617   7.81484366   2.54034253  -0.68081098   0.49679446  -0.12801460
 O    9.85996380   7.70569691   6.71168648  -1.22123865   0.70056102  -0.53808488
 O    9.54721460   7.75994252  10.74788978   0.68410010  -1.98782750   1.33138563
 O    9.63584072   0.04379215   2.62466362   0.92302897  -1.67642555  -0.57192747
 O    9.78248179   0.02782516   6.72030187  -0.22746557  -1.86888737   0.15867550
 O    9.69585739  11.60662777  10.87811804  -0.94083521   2.14161792  -0.21029363
