# total energy = -399027.96655429
CRSYTAL
PRIMVEC
 11.70600000   0.00000000   0.00000000
  0.00000000  11.70600000   0.00000000
  0.00000000   0.00000000  12.46800000
PRIMCOORD
135 1
Pb    3.67567229   3.85857854   3.94846598   1.43403243   1.16150941   1.79103547
Pb    4.15958663   3.95818490   8.48011020  -1.89938383  -0.28372083  -1.49317136
Pb    3.90169174   3.88908438   0.06023291  -0.60136467   1.47339998  -0.88865679
Pb    3.80670926   7.80880336   4.15315314  -0.28605719   0.03365600   0.15148744
Pb    3.94752073   7.61221280   8.11572043  -1.52001856   1.03554245   1.03979795
Pb    3.95601929   7.84828770   0.08470759  -1.24880139  -0.75799626  -0.42802816
Pb    3.92062034   0.03134867   4.01115509  -1.06122147  -1.05613990   1.89013855
Pb    4.04676420   0.07359562   8.33813708  -0.45601016  -0.92032271  -1.14818385
Pb    3.93862417   0.19772605   0.07101773  -1.41502871  -2.43196795  -0.76587728
Pb    7.77765370   3.68460397   4.07824540   0.22921289   1.16103379   0.21103523
Pb    7.69924691   3.98057848   8.33135449   1.55025764  -0.33123223  -0.36667387
Pb    7.78701850   3.92256354  12.37535029   0.78145157  -0.13429022  -0.17268567
Pb    7.81952606   7.59818901   4.19046986   0.19665415   1.69373055   0.90313800
Pb    7.76573699   7.84971583   8.45972502   1.13354410  -0.29917831  -0.86217256
Pb    7.80376978   7.94547091   0.03193055   0.16854699  -0.66021573  -0.44593046
Pb    7.76713000   0.01731317   4.26404353   0.83782025  -0.27310712  -0.90853664
Pb    8.02433423  11.60730671   8.32119307  -0.68756357   0.78949113  -0.47843497
Pb    7.45831402  11.65734986   0.19425144   1.31270063  -0.09444706  -0.82607591
Pb   11.45651002   3.93120257   4.16054666   0.06164634   0.21785655  -0.73024373
Pb    0.07937839   3.89170652   8.37944357  -0.35179214   0.60946264  -0.96417522
Pb    0.08070116   3.61974103  12.46230212  -0.90917914   2.04176784   0.02872462
Pb    0.12781781   7.87481350   4.10844289  -0.71000090   0.25614353   1.11180350
Pb    0.15167464   7.74751075   8.29951122  -0.06443327   0.49466428  -0.02891236
Pb    0.00227096   7.91490655  12.46730179   0.19786404  -0.18593613  -1.13306431
Pb   11.69116850   0.12815729   4.28300736  -0.28458445  -1.08121397  -0.47448820
Pb    0.12756028   0.25881966   8.33723939  -1.19292083  -2.62271029  -0.34953923
Pb   11.61009274   0.08162594   0.18107276   0.40947502  -1.23304352  -1.92182533
Ti    1.86626417   1.89742554   2.23487653  -2.15732134   0.31636302  -0.42147803
Ti    2.03617676   1.96659629   6.27506959  -0.00727190   0.07167596   0.92371877
Ti    1.93672258   1.81897193  10.53100892  -0.82035602   0.56006964  -0.72313037
Ti    1.86570228   5.83572194   2.20666145   0.03686431  -1.34228470  -0.17710805
Ti    1.92701831   5.74105552   6.22080886   0.37495541   1.31262971   1.62558415
Ti    1.88720620   5.79922264  10.58049442   2.40875044   1.18015016  -0.70317959
Ti    1.88869286   9.73119780   2.08221834   0.08287794   0.74270567   4.17164121
Ti    1.99308697   9.75658811   6.44957172  -0.36487988  -0.48726722  -1.33767457
Ti    1.95527659   9.70735268  10.43089088  -1.04364458  -0.61384330  -0.09872759
Ti    5.73951033   1.97148940   2.17864585   2.37401806  -0.71367648  -0.45177969
Ti    5.84739283   1.93564563   6.28448293   0.09125543  -0.85599374   0.71954657
Ti    5.80354215   1.92260515  10.49281944   1.56639099  -0.45386155  -1.09436013
Ti    5.85648839   5.86708232   2.18679992  -2.50210025  -0.64997332   0.69278699
Ti    5.85789311   5.83322857   6.22518512  -0.83821243  -1.53642309  -1.71298878
Ti    5.81943890   5.85802187  10.54832698  -1.23657308   0.03789063  -0.78163097
Ti    5.78675575   9.72132964   2.30989649   0.81242494  -0.49425959  -0.96102948
Ti    5.88543733   9.70220204   6.28777448  -1.65175130   1.03982298  -1.13340225
Ti    5.71566521   9.68992244  10.50869120   0.03308442   0.94933103  -0.52884595
Ti    9.67427152   1.86861707   2.05476380  -0.51924187   1.72420327   1.36304486
Ti    9.76660845   1.97249612   6.39822850  -0.77829333   0.10035052   0.98789337
Ti    9.66250699   1.84556796  10.52563522   0.94580147   1.78564517  -0.83816236
Ti    9.64821397   5.89180539   2.12604336   1.87165633  -1.98719732  -0.56772119
Ti    9.72142329   5.85024909   6.39902645   1.06874786  -0.61757729  -0.35724085
Ti    9.83639962   5.83590924  10.51784272  -2.68876649  -1.21559597  -0.59981267
Ti    9.72542674   9.75480880   2.29200491  -0.46614409   0.88330821  -0.08065423
Ti    9.81041230   9.68811972   6.36786892   1.75657844   0.67805962  -0.60107680
Ti    9.69407807   9.76530908  10.54774098   1.94654895  -0.64326883  -1.39909979
 O    1.84959482   1.86419221   0.38972474  -0.31564125  -0.60102674   0.04460765
 O    1.90165141   1.90076175   4.46196056   0.54815424   0.19737591   0.13303025
 O    1.80616556   1.86336108   8.71435898   1.31792822   0.82060634  -0.37838901
 O    1.85458158   5.75449401   0.45308712  -0.03083151  -0.07935672  -2.59666830
 O    2.09248262   5.75449401   4.42571609  -1.54317348   0.05313951   0.12423973
 O    1.90668499   5.96241598   8.76067760   0.14753650  -1.71537102   0.55224286
 O    1.85269691   9.67572307   0.35557489  -0.73364396   0.32822001  -1.90791152
 O    1.97218006   9.55262277   4.61791031  -0.09481420   0.29219846  -0.22944652
 O    1.98570049   9.57805991   8.60464058   0.54597225   0.40348394   1.14312732
 O    5.70563317   1.81974452   0.32320796   0.89754744   0.53056484   0.95930642
 O    5.74442685   1.83170806   4.46435442   0.68073808   0.33588408  -1.05487577
 O    5.80810749   1.94674292   8.64974981  -0.41270419  -0.51239553   1.55725835
 O    5.66705019   5.76063966   0.38411414   1.77413864  -0.29103862  -0.79136438
 O    5.87348550   5.71696457   4.38078142  -0.89010449   0.63441572   3.10003132
 O    5.73030941   5.80306220   8.64028660   0.34668554  -0.27973234   1.28267016
 O    5.81384343   9.73643038   0.45034416   0.57883556  -0.23546680  -0.12463190
 O    5.75153239   9.48450556   4.40059307   0.83715273   1.76462634   2.60318922
 O    5.69481682   9.72816595   8.69932258   0.92386062  -0.27166776   0.86221011
 O    9.75058294   1.91661167   0.25649170   0.22655529  -0.96897308   0.68509788
 O    9.61486357   2.03754636   4.59652769   0.57795108  -0.77757156  -0.51496551
 O    9.73371459   1.83873166   8.68168036   0.22888747   0.32654701   0.29080499
 O    9.42419624   5.75191869   0.28723778   1.04835484   1.15075384   2.96352157
 O    9.80214787   5.82642738   4.57782569  -0.61281280  -0.22473627  -0.17824702
 O    9.62202764   5.68850729   8.69340028   0.55545117   1.00991766   0.76719982
 O    9.71548835   9.68897426   0.44480837   0.12669290   0.20833591  -0.06811303
 O    9.81504788   9.71006847   4.53679350  -0.07077480  -0.01707206   1.00433962
 O    9.72000686   9.67246880   8.73559199  -1.01078962   0.21442711   0.58982059
 O    3.79393801   1.84542749   2.34471961   1.41777810  -0.08984111   0.62362678
 O    3.88599400   1.83332348   6.63876115  -0.35492535   0.62798240   0.07438363
 O    3.81019765   1.87238641  10.81344653   1.71099870   0.22290056  -0.13699371
 O    3.83884223   5.70841919   2.43966343   1.36516009  -0.33079417  -0.17145908
 O    3.88642712   5.83947957   6.54942793   1.30615050  -0.14450342   0.10293720
 O    3.81310073   5.78989295  10.90766720   0.48613659  -0.50424332  -0.27293189
 O    3.78248954   9.69263824   2.42180926   1.69218272   0.59876548   0.40413061
 O    3.99275272   9.69017998   6.59135782  -0.32025555  -0.87689158   0.18436326
 O    3.79231088   9.73481495  10.97181506   3.07025951  -0.58851056  -0.72318878
 O    7.77169534   1.82991704   2.38056511  -2.07477299   0.06306066   0.52351823
 O    7.78416223   1.83339372   6.64999482  -0.67589432   0.52509527  -0.32859549
 O    7.81506607   1.96259284  10.84449185  -3.57423999  -0.83028969  -0.29216091
 O    7.74368288   5.81981349   2.72461957   1.55851414  -0.21776059  -3.06363428
 O    7.77052474   5.78146463   6.58679453  -0.68518550  -0.41981755   0.21903307
 O    7.64115003   5.80330803  10.66306998   1.01126107  -0.79720109   0.87270284
 O    7.81189375   9.74680190   2.55687510  -1.13203381  -0.85585606  -0.19744684
 O    7.88182539   9.81356122   6.66336052  -2.89780330  -0.77750063  -0.08922364
 O    7.69353438   9.59737481  10.76468418  -0.04258003   1.05615242   0.28722119
 O   11.56332727   1.86944820   2.43488819   1.22432392   0.04980186   0.25111620
 O    0.04154459   1.87073586   6.54996406  -0.32822418   0.68823944   0.40165241
 O   11.68169834   1.79486927  10.76202850  -0.50678828   0.23154507   1.08075504
 O   11.64078587   5.67092488   2.46502334  -2.29308847   1.25748344  -0.12548717
 O    0.04397944   5.70120830   6.61340124  -0.92794506   0.42175339   0.26171322
 O   11.64591310   5.79224586  10.77899744   0.07742923   0.05185451   0.62203722
 O    0.00718748   9.80238199   2.55786007  -1.07908205  -0.95862638  -0.47457164
 O    0.03093896   9.69325865   6.73778201  -0.93643103  -0.11570370  -0.65450001
 O    0.02481672   9.67388522  10.72344004  -2.24150514  -0.21752695   1.09476064
 O    1.81052020   3.80641661   2.49003415   0.52945507  -1.04529255  -0.15195054
 O    2.03783901   3.87447529   6.65692703  -0.47160948  -1.37350838   0.01261630
 O    1.87237470   3.82106081  10.88922703   0.05801247  -0.23645558  -0.62078560
 O    1.92448981   7.71214692   2.42143522  -0.70774799   2.23525122   0.26117503
 O    1.88980493   7.68977675   6.62651758   0.63588846  -0.36127940  -0.30211961
 O    1.90172164   7.73674123  10.86052570  -0.26641513   0.21086835   0.71331769
 O    1.79235248  11.67777683   2.62109777   1.19382200  -0.35900145  -1.16120902
 O    2.00339996  11.63954504   6.57135914  -0.34318935   1.16082102   0.46349066
 O    1.97243759  11.59777803  10.75872448  -0.55859690   1.30938385   0.21899552
 O    5.87935021   3.76605432   2.37209934  -0.35921840   1.33000633   0.31659248
 O    5.73579953   3.80236633   6.59891342   0.82815777   1.83619383   0.31377634
 O    5.67338314   3.79692304  10.71016162   0.52960110   1.34967759   0.71019699
 O    5.71806494   7.71658349   2.39462902   0.83442837   0.42882085  -0.00458926
 O    5.90518535   7.73027951   6.57786744   0.39524413   0.74281414   0.07076645
 O    5.78741128   7.73964431  10.84432976  -0.70827784   1.16299466  -0.00735951
 O    5.88921836  11.62932570   2.45312887  -0.92850829   0.32678482   0.50289575
 O    5.69692390  11.69180062   6.56074888   1.69882047  -2.17872400  -0.08362057
 O    5.77753142   0.00221243  10.86941538   0.10569910  -1.57471424  -0.50126865
 O    9.59859223   3.82135346   2.44682006   0.19253215   1.19479826   0.04963081
 O    9.79150711   3.90473530   6.71687317  -0.47699561  -1.83421628   0.00426802
 O    9.65951026   3.82367125  10.82645065   0.73902174   0.79602040  -0.23510801
 O    9.77365546   7.80181488   2.52928342  -0.45833817  -1.96226092  -0.76959041
 O    9.71299497   7.73932825   6.68251136  -0.03932582   0.53182897   0.27116294
 O    9.61128154   7.73740847  10.81000536   0.54318532   0.04082359   0.49152689
 O    9.63681232   0.02653750   2.59859303   0.94363617  -1.74719966  -0.46691175
 O    9.79171782  11.68186223   6.69645059   0.02940467  -0.15315209  -0.53561720
 O    9.68493569  11.63562353  10.79349773  -0.35552196  -0.57066667   0.49227786
