# total energy = -399026.51346626
CRSYTAL
PRIMVEC
 11.70600000   0.00000000   0.00000000
  0.00000000  11.70600000   0.00000000
  0.00000000   0.00000000  12.46800000
PRIMCOORD
135 1
Pb    3.65483561   3.86343653   3.93847912   2.88932811  -0.55217464   3.77212753
Pb    4.16799154   3.96388572   8.49060826  -1.39463409  -0.29334981  -1.55921898
Pb    3.89592068   3.89041886   0.06362420  -0.16746489   2.21483855  -1.07329430
Pb    3.79528420   7.80410926   4.14976184   0.74221951   0.96442437   0.91641440
Pb    3.94290857   7.60192322   8.11280292  -0.59836461   1.17793923   0.46818969
Pb    3.94783679   7.85237309   0.09521812  -0.10248493  -0.58199962  -0.78910948
Pb    3.92049158   0.02931182   4.01753870  -1.10528428  -1.14222925   2.52710835
Pb    4.05930133   0.07391168   8.33453383  -0.17823488  -0.40136974  -1.97325871
Pb    3.92523251   0.19879129   0.07834891  -0.39531974  -2.79017317  -0.85266944
Pb    7.77736105   3.68036640   4.07945479  -0.62330459   1.59116896   0.22174485
Pb    7.70335571   3.99011887   8.33606740   1.42569907   0.00668000  -0.17136489
Pb    7.78896169   3.92405020  12.37309358   0.58014962   0.75413451  -0.09925494
Pb    7.82412652   7.58564018   4.20493274  -0.07533495   1.86038878   0.18187488
Pb    7.77211676   7.85354369   8.47292863   0.58625462  -0.23557985  -0.71218453
Pb    7.81044220   7.95573707   0.03847625  -0.09329994  -0.39604974  -0.18534988
Pb    7.77197629   0.01459738   4.27531460   0.62284459  -0.73837452  -0.65261457
Pb    8.03853361  11.59778974   8.32928480  -0.95062938   0.50846967  -0.62574459
Pb    7.43537026  11.64818407   0.20710595   1.16297424  -0.83231446  -1.03344432
Pb   11.42889557   3.93874123   4.16146930  -0.03613998   0.13329991  -0.54503464
Pb    0.09334364   3.89830871   8.38645058  -1.15562924   0.24227484  -0.51983466
Pb    0.08386178   3.60323557  12.45957163  -1.25470418   2.70494823  -0.63679958
Pb    0.13248851   7.88177857   4.11577408  -1.34383912   0.49074968   0.75872950
Pb    0.16805134   7.74555584   8.30497220  -0.04597997   0.44805971  -0.30528980
Pb   11.70426751   7.92290174  12.46695269  -0.71896453  -0.50091967  -0.48273968
Pb   11.68254118   0.13468924   4.30242004  -0.10734493  -1.07715930  -0.62993459
Pb    0.13907899   0.26518772   8.34051847  -1.01647434  -2.10031863  -0.34633477
Pb   11.59926469   0.07608900   0.18422717   0.22133486  -1.74851386  -1.67557890
Ti    1.84020661   1.96052088   2.20830722  -0.99818935  -3.04064301   1.23333419
Ti    2.02589889   1.99198661   6.27646601   1.57144897  -2.91141310   1.01944933
Ti    1.95704420   1.85826897  10.53792866  -1.72774387   0.06890995  -2.07711864
Ti    1.89596229   5.86001189   2.21810707  -1.35882911  -0.96312437  -2.36695845
Ti    1.90266983   5.69226491   6.22755404   1.41658407   2.60584330   1.55217398
Ti    1.88711255   5.83235062  10.54520998   2.25316353   0.45922970   2.95535307
Ti    1.87843841   9.73654744   2.06675802   0.14926990   1.60707395   4.11116731
Ti    1.95059419   9.76786099   6.44655446   1.51181401   0.27245482  -2.33143848
Ti    1.98502154   9.70429741  10.40326180  -1.08809929   0.12209992   0.50755467
Ti    5.75223475   1.93682794   2.18434373   2.11787361   1.09653428  -0.32011979
Ti    5.89337399   1.91331058   6.27201493  -1.71996887  -2.30813349  -0.00131000
Ti    5.79420076   1.96749766  10.49912825   2.21012855  -2.50027336  -1.34905912
Ti    5.82708292   5.86011725   2.19970430  -0.05138497  -0.11955492  -0.27351482
Ti    5.87512434   5.77955656   6.21524813  -1.91244375   0.14628990  -1.74070386
Ti    5.83451623   5.87158913  10.54838932   0.09637994   1.11103427  -1.03979432
Ti    5.75644891   9.73791704   2.32333699   2.78585318  -2.32621848  -1.26846917
Ti    5.87816790   9.68597752   6.30420731  -0.59353461   1.13256426  -2.66734326
Ti    5.70294079   9.70325558  10.46895569   1.59273896   0.84874944   1.48924903
Ti    9.65309537   1.89033170   2.04334312  -0.54470964  -0.05651996   2.35802346
Ti    9.77425247   1.99558035   6.39118408  -1.10608928  -0.48954468  -0.01885499
Ti    9.66445019   1.84350770  10.51390283   0.58942461   1.50558402  -1.52069401
Ti    9.66889847   5.84077894   2.12148007   0.14253491   0.81428947  -2.41225342
Ti    9.69497944   5.87076971   6.39179501   0.74409451  -0.59917461   1.36492411
Ti    9.83410525   5.83162484  10.51846612  -3.60680764  -0.56112463  -0.87342443
Ti    9.71269061   9.74872168   2.30312636  -1.88763377  -0.51054967  -0.12065992
Ti    9.80218298   9.64931433   6.37177140   0.18600488   1.95425872  -1.34971912
Ti    9.72835324   9.76546126  10.53459971   0.62326959  -0.62750459  -1.49112902
 O    1.79642617   1.90801947   0.38871484   0.63469458  -0.67195956  -0.51174967
 O    1.95548730   1.91084062   4.48679682  -0.68593955   0.06371496  -1.89683376
 O    1.78730720   1.93675770   8.70364897   1.03073933   0.36563476   0.31676979
 O    1.92562529   5.81122129   0.41939858  -0.13586491  -0.49796467  -0.22054986
 O    2.06510228   5.73128101   4.45302101  -1.72136887   0.10646493  -0.57649462
 O    1.92010006   5.97872244   8.80067495  -0.09620994  -1.80677882  -3.14213794
 O    1.81303699   9.62213300   0.32505323   0.32702979   0.70778454  -0.18629488
 O    1.98846310   9.64253656   4.58322433  -0.06364996  -0.33844978   0.25633483
 O    1.97692099   9.57547288   8.56554094   0.48329468   0.75395951   2.31185349
 O    5.74791524   1.76664611   0.29984293   0.11506492   1.68408890   1.69589889
 O    5.78876918   1.82598382   4.43711184   0.79687948   0.15956490  -1.57479397
 O    5.84378738   1.88094349   8.65705606  -0.64889958   0.07815995   2.09819863
 O    5.70480204   5.76809638   0.33032719   0.93194939  -0.63719958   1.05324431
 O    5.85225082   5.69947581   4.35676805  -1.18912922   0.33326978   3.42092276
 O    5.81352737   5.82262293   8.57840791   0.04230497  -0.82943446   1.72305387
 O    5.86362905   9.72509897   0.43528282   0.09629494  -0.61846960  -0.62731459
 O    5.69364622   9.54161913   4.37085689   1.17598423   1.35743411   2.93552808
 O    5.72075732   9.75416497   8.68852529   0.62591959  -0.15483490  -0.04312497
 O    9.80217128   1.86700165   0.25159177  -0.19625487  -0.02058999   0.50356967
 O    9.62569162   1.98009331   4.52174462   0.70148954  -0.15435490   1.34886912
 O    9.79791029   1.76994720   8.62360441  -0.27724982   1.10056428   1.53866899
 O    9.44505634   5.71767864   0.23692940   1.04355432   0.76501450   4.11644231
 O    9.71496158   5.88429014   4.61216256   0.91592440  -0.95735437  -1.57717897
 O    9.61694724   5.72920905   8.64676996   0.22913985   1.13800926   1.22132920
 O    9.73850234   9.70799651   0.47576641  -0.12220492   0.06516496  -1.63681393
 O    9.85637006   9.57726390   4.52936257  -0.09104994   0.64873458   1.24366919
 O    9.67101725   9.74985716   8.68053330   0.26615983  -0.81586947   1.81305881
 O    3.85509016   1.81936993   2.39224763  -0.82528446   0.66109457  -0.69564954
 O    3.86972266   1.82258908   6.61115700  -0.38801975   0.34135478   0.65652957
 O    3.81823967   1.88328469  10.75740287   1.86174378   0.42199472   0.50607967
 O    3.78452639   5.58988424   2.47589544   2.21172855   1.36448911  -1.52900400
 O    3.91914539   5.84514527   6.53777035  -0.28094482  -0.58391462   0.31495479
 O    3.87748373   5.78571391  10.85122457  -1.23931919  -0.76255950  -0.21831986
 O    3.88236514   9.72466585   2.43581082  -4.01015738  -0.19512487  -0.61078960
 O    4.07024644   9.66562079   6.61050866  -3.80579751  -0.02404998   0.70484454
 O    3.82943060   9.74009436  10.98682654   0.72609953  -0.55987463  -1.13065926
 O    7.77151975   1.79067853   2.37618884  -1.00013435  -0.03071998   0.21539486
 O    7.75270821   1.88924305   6.57773029   1.96175872   0.32122979   0.21797986
 O    7.82871527   1.87615574  10.84844420  -2.82398315   0.39469474  -0.54039465
 O    7.73236318   5.84206660   2.68661711   0.76418950  -0.53819965  -2.72860822
 O    7.74452572   5.78428578   6.42725400  -0.05812996  -1.32522913   1.52119900
 O    7.69265643   5.85922759  10.66171097  -0.38921975  -1.03141433   0.56924963
 O    7.77288935   9.65036787   2.53419581   0.29622481   0.00082500   0.33274478
 O    7.83435756   9.85798549   6.61964771  -0.70826954  -0.62984459   0.04194997
 O    7.69923520   9.60280639  10.69018788   0.75525451   0.55140964   0.56027463
 O   11.52212215   1.83766641   2.45175739   2.19219857   1.10113428   0.10293993
 O   11.68420343   1.94567767   6.56071147   0.45625470   0.16541989   0.12780992
 O   11.70360027   1.77920665  10.78175287  -1.24917418   0.62277459   0.79314448
 O   11.63439440   5.73308374   2.48671766  -0.28440481  -0.12226992   0.01716999
 O    0.00412051   5.71685922   6.64586791   0.80522947   0.76759950  -0.19367487
 O   11.62336735   5.76685555  10.78449583   2.52730335  -0.04275997   0.27670482
 O   11.65320594   9.69794105   2.48538359   2.52096335  -0.58613462  -0.08061495
 O    0.09800263   9.61606929   6.66822304  -2.75122320   0.00743000  -0.11959992
 O   11.70574247   9.65558875  10.81374576  -1.18627922   0.37231476  -0.58282962
 O    1.86206171   3.76909788   2.47109526  -1.05294431   1.15957424  -0.46531970
 O    2.06482134   3.81732660   6.52006579  -1.00640934   3.03383802   1.43217906
 O    1.86212024   3.82429167  10.84320764   0.24240984   0.03815998   0.03053498
 O    1.95813286   7.72635800   2.44897703  -0.19787487   1.80841382   0.01720999
 O    1.97244929   7.71297805   6.63844945  -0.05716996  -1.50295902  -0.46820469
 O    1.92355333   7.75150249  10.78622888  -0.34887977   0.35976976   0.69881454
 O    1.78092743  11.69458665   2.61914029   0.89327942  -1.18177423  -1.83647380
 O    1.97696781  11.70375245   6.56839176  -0.79417948  -1.30552915   0.87660443
 O    1.96656118  11.60063429  10.76421040  -0.38026475   0.87831443  -0.09840494
 O    5.97161690   3.78934926   2.40052638  -1.24528419  -1.00520934  -0.59636961
 O    5.66093966   3.70684537   6.66763704   1.47239904   4.99949673  -0.01331999
 O    5.71898971   3.83998942  10.67687206   0.57171463   0.05437996   0.70723454
 O    5.72747656   7.70708993   2.39954141  -0.34665977  -1.30375915  -0.17594488
 O    5.92171422   7.78205515   6.55052512   0.43581471  -2.10662362   0.20588487
 O    5.79301846   7.73825130  10.83524059  -0.93053939   1.53949899  -0.28790481
 O    5.81829171  11.57573563   2.34722568   0.34532977   3.92597243   1.10521428
 O    5.73503864   0.00414392   6.51339541   0.97807436  -1.80824382   0.62461459
 O    5.77117506   0.00623930  10.90487437  -0.28434481  -1.41219408  -1.09714428
 O    9.55645063   3.90501625   2.46029797   0.97925936  -1.96342872  -0.15311490
 O    9.81041230   3.91929757   6.76581007  -1.05678431  -2.01675868  -0.96651937
 O    9.60452717   3.88161595  10.79924548   1.05298931  -1.86273878  -0.61901960
 O    9.73693374   7.71776580   2.48838838  -0.01724499  -0.82423946  -0.40059474
 O    9.56424683   7.78854028   6.66442030   1.01071434  -1.31022414   0.83324445
 O    9.69804641   7.71489783  10.89294250   0.11685992   1.68433890  -0.57282963
 O    9.67687025  11.65011556   2.55262351   0.38695975   1.04205932  -0.22306985
 O    9.80234687  11.62164656   6.65079277   0.27022982   1.25549418  -0.82021446
 O    9.65927614  11.64900349  10.72926259   0.43279972  -1.09957928   0.78414449
