# total energy = -399026.53523537
CRSYTAL
PRIMVEC
 11.70600000   0.00000000   0.00000000
  0.00000000  11.70600000   0.00000000
  0.00000000   0.00000000  12.46800000
PRIMCOORD
135 1
Pb    3.64145566   3.86721757   3.94034932   2.80007406  -1.51341450   3.95190597
Pb    4.17212375   3.96943436   8.49700434  -1.54089017   0.31294068  -0.88848124
Pb    3.88890879   3.89953784   0.06361174   0.44026534   1.75899670  -1.07374594
Pb    3.78476051   7.80188512   4.14918832   0.60591830   0.70607048   1.29784908
Pb    3.93548696   7.59444309   8.11130676   0.23156763   0.95159974   0.16901222
Pb    3.93795693   7.85497183   0.10410780   0.06844134   0.09776509  -1.14347226
Pb    3.91627742   0.02307253   4.03324838  -1.15761677  -0.50059728   1.25591125
Pb    4.07265787   0.07238990   8.32378642  -0.00406191  -1.01735078  -1.11978899
Pb    3.90843440   0.19029274   0.08353560  -0.23029708  -2.06935296  -0.92976935
Pb    7.77501985   3.68143165   4.08151201  -0.84923853   2.13789536   0.04326613
Pb    7.71294293   4.00084156   8.34058081   0.48538435   0.28784729  -0.44532829
Pb    7.79302367   3.92808877  12.37026335  -0.44488552   0.75475089   0.28117689
Pb    7.82921863   7.57783228   4.22171467   0.25093873   0.39177262  -0.68772930
Pb    7.78128256   7.85718426   8.48522208  -0.45460717   0.26394263  -0.55191023
Pb    7.81769992   7.96566376   0.04499701   0.08574297  -0.28777028  -0.45165217
Pb    7.77973736   0.00909556   4.28568798   0.46725012  -0.60147618  -0.14911173
Pb    8.05107074  11.58886976   8.33627935  -1.22224164  -0.08192169  -0.14576209
Pb    7.41398339  11.63522552   0.21746686   1.50316827  -0.50253680  -2.08164458
Pb   11.39805026   3.94780168   4.16037211   0.55511068   0.49053875  -0.43427834
Pb    0.10513159   3.90685409   8.39233548  -0.94615658   0.58011744  -0.25170395
Pb    0.08297213   3.59440924  12.45433507  -1.17202117   2.96031755  -0.91242921
Pb    0.13303869   7.89097948   4.12659630  -1.45559959  -0.35081177   0.08775468
Pb    0.18631270   7.74478325   8.31010902   0.13565062  -0.22621591  -0.31032738
Pb   11.69758339   7.93013605  12.46490794  -0.62633856  -0.55359468   0.62486106
Pb   11.67248572   0.13831810   4.32184518  -0.06194901  -0.51475623  -0.80269496
Pb    0.14820967   0.26464925   8.34299960  -1.03934479  -1.55830732  -0.10197138
Pb   11.58798011   0.06350505   0.18165876   0.29451287  -2.25266369  -1.59143791
Ti    1.79523216   1.98668379   2.19553999   0.54831034  -3.99398336   1.30401414
Ti    2.03494763   1.98239939   6.29045510   0.23455150  -1.25676791  -1.22326674
Ti    1.95654084   1.90354778  10.51708217  -0.01098738  -0.29445512  -0.67527886
Ti    1.90981049   5.87348550   2.19774683  -2.17747496   0.44513578  -2.35334527
Ti    1.89674659   5.67851036   6.25826273   1.83326620   3.84576198   0.41002717
Ti    1.92136431   5.87706754  10.54175634   1.00489071  -0.35325181   0.48720355
Ti    1.86852343   9.76640945   2.10866297  -0.43668950   1.26294260  -1.01285091
Ti    1.92532094   9.78184966   6.40852706   2.66132887  -0.79588018  -1.86337924
Ti    2.00211230   9.70310340  10.38438524  -0.32423607   1.29420105   4.19882128
Ti    5.79658879   1.91417683   2.18525389  -0.41510457   2.35472652  -0.27845772
Ti    5.92081286   1.85843285   6.25790116  -1.66480744   0.21870330  -1.14614331
Ti    5.81777665   1.98218869  10.49060014   2.14578818  -2.08521560   2.18203258
Ti    5.79328769   5.84643293   2.20903037   2.72054427  -2.13302010  -1.96006628
Ti    5.86505718   5.72037102   6.18404072  -2.18310581   1.20436248   3.49993616
Ti    5.85048321   5.90306656  10.53243028   0.02099779   1.34175048  -0.80569808
Ti    5.76069819   9.72639834   2.31726508   1.47006655  -0.60471512  -2.42624316
Ti    5.85849011   9.68186872   6.28654015  -0.40273113  -1.25974216   0.16931061
Ti    5.71392101   9.73187675  10.44496726   3.20975472   0.89463187   1.48799384
Ti    9.62216812   1.91604979   2.06522446   0.37002887  -0.50067428   1.71325684
Ti    9.76672551   2.01374806   6.38369081  -0.39700402  -1.18869715  -0.61763721
Ti    9.67481000   1.86201489  10.47944128  -0.65427144  -0.78201962  -0.12988982
Ti    9.69570521   5.79424759   2.08491143  -0.65974829   2.26162975   1.20681214
Ti    9.67662443   5.88429014   6.39979946   0.08233559  -0.60686158  -0.25916844
Ti    9.78121754   5.81969643  10.50708283  -0.26249882   1.34065800   0.04987396
Ti    9.67429493   9.73392530   2.31003364   0.22600416  -1.98676711  -2.57752060
Ti    9.79751229   9.63469354   6.35815634  -0.78892102   2.03116422   0.14361082
Ti    9.77579766   9.75622523  10.49943995  -1.43911611  -0.19503446   0.75973684
 O    1.76485509   1.92628083   0.36692077   1.24913979  -0.56351364  -0.25392741
 O    1.98728080   1.92384598   4.44678701  -1.12215683  -0.45486224   0.56085703
 O    1.81289651   2.03465498   8.69904828   0.24942273  -0.57181073  -0.67176559
 O    1.99919750   5.85276588   0.36588593  -0.15712487  -0.55212199   1.61130953
 O    1.95899910   5.71157981   4.45684868  -0.49703589   0.47470979  -1.03844482
 O    1.93053011   5.91307519   8.72807378  -0.30449440  -1.39922368  -0.77059428
 O    1.78363151   9.59531455   0.28212590   1.38875607   1.09026310   2.62406899
 O    2.00255713   9.72976967   4.55767740  -0.29839671  -0.43363825   0.83928588
 O    1.98663697   9.60620113   8.61219619  -0.37191544   0.68610742  -0.70250427
 O    5.80157554   1.78045919   0.34179775  -0.54205383   1.50284101  -0.41187525
 O    5.87391862   1.82631159   4.35457368   0.36449908  -0.15589763   3.01928750
 O    5.85541144   1.80868235   8.73843469  -0.42900363   0.24422983  -3.18348703
 O    5.79016219   5.74913266   0.31293433  -0.21467507  -0.36190504   1.44564213
 O    5.77648958   5.69564795   4.45824510  -0.50885105   0.04441155  -4.10523843
 O    5.90910686   5.80955903   8.59169880  -0.27928069  -0.40197072   2.21581770
 O    5.92308382   9.68576681   0.40333980  -0.62206008  -0.44574218   1.99398615
 O    5.68081645   9.66847705   4.45626269   0.67294470   0.54420030  -1.45083021
 O    5.77832743   9.77695655   8.67266599   0.01803798   0.17519653  -1.27365085
 O    9.84825780   1.80989978   0.27363520  -1.23423487   0.89428535   1.09850244
 O    9.66859411   1.90696593   4.49155960   0.30831086   0.18749778   0.98041334
 O    9.85689683   1.74139627   8.62482628  -0.83071447   1.14252416   1.16348345
 O    9.51550304   5.71279724   0.34267051   0.49672306  -0.35241440  -2.88921479
 O    9.65664229   5.90623889   4.59271248   1.71054248  -1.21802572   0.44045784
 O    9.62303436   5.82468319   8.64982462   0.09885275   0.33857790   0.98622227
 O    9.75662323   9.73201722   0.45231410  -0.82106020  -0.17991298   0.89932906
 O    9.89592463   9.45824900   4.56760193  -0.72762173   1.18864422  -1.34007085
 O    9.62628863   9.80060267   8.68666756   1.15950335  -1.39533503  -1.13432333
 O    3.88948238   1.81961576   2.41830575  -2.13728896   1.05947148  -0.85243897
 O    3.84159314   1.82723636   6.60771583   1.60175151   0.09085887   0.46467051
 O    3.89813312   1.91335741  10.71743046  -1.86541982   0.12369589   0.99236808
 O    3.81749048   5.51881711   2.44996200   0.51354343   2.51887792  -1.57102727
 O    3.94396211   5.82717656   6.54025148  -1.75286532  -0.37465868   0.67095706
 O    3.89925689   5.74809083  10.77924680  -1.11981786  -0.28866063   0.18556789
 O    3.84855821   9.75334555   2.42861678  -0.64337550  -0.65114800  -0.25372047
 O    3.99818430   9.63675379   6.66110381  -3.02433602   0.92045679   0.27048308
 O    3.90040408   9.72102529  10.95399829  -3.09750823  -0.18716089  -0.86496160
 O    7.73490338   1.74543484   2.38265974   2.63830494  -0.10176925   0.14222957
 O    7.78555525   1.96544911   6.50598942  -0.49988500  -0.31544328   0.63523242
 O    7.72498840   1.79578234  10.82909387   1.72489875   1.19860168  -0.36648191
 O    7.74808434   5.84331914   2.52530612  -1.81924201  -0.51321135   0.06334469
 O    7.72131272   5.72857693   6.31853304   2.28509645  -1.44127220   2.53961101
 O    7.74255911   5.87637688  10.68895355   0.29797320  -0.54355058   0.65444951
 O    7.73630810   9.54310579   2.52313669   0.40452626   1.12037614   0.63951091
 O    7.74769804   9.87836563   6.57253114   1.87031914  -0.41430566   0.11494641
 O    7.73572280   9.63351123  10.63444345   0.35271760  -0.32591570   1.19589213
 O   11.56737755   1.84874029   2.47534685   0.41134585   0.97832463  -0.05232362
 O   11.64073905   2.03580217   6.57970024   2.50789535  -0.84051311   0.03559950
 O   11.67413627   1.79024540  10.83666194  -0.85809389   0.83683621  -0.63606983
 O   11.61764311   5.79937481   2.51060635   2.82685671  -1.10499476  -0.21068053
 O   11.69081732   5.76793250   6.67490588  -0.04947932   0.48599075  -0.28827562
 O   11.69024372   5.73723937  10.80251209  -0.66291504   0.03176860  -0.35847840
 O   11.67721495   9.55532686   2.40274568   0.30222762   0.35056633   0.98704042
 O    0.05847147   9.52987801   6.58542305  -1.23501453   0.15678798   0.71087836
 O   11.62900964   9.65269736  10.88897767   1.92505392   1.02808309  -2.08348784
 O    1.87705710   3.77811150   2.42937733  -1.21378573   2.43893905  -0.52468482
 O    2.05036443   3.85832101   6.42974760  -0.88302365  -0.30032660   2.00755795
 O    1.86179248   3.82770982  10.79304888   0.36419107  -0.11660679   0.75916413
 O    1.98694132   7.81201081   2.48191748   0.49736315  -2.53113585   0.04492169
 O    2.06001017   7.68206250   6.63078163  -1.34984062   0.47810274  -0.38091518
 O    1.93254354   7.78176250  10.73418745  -0.19499596  -0.21131100   0.24993287
 O    1.80896330  11.66470123   2.53744996   0.22672125  -0.23421943  -0.84560976
 O    1.91178880   0.01953731   6.60301540  -0.82251845  -1.40934478   0.53012316
 O    1.94291506  11.64509368  10.76488367   0.02056465   0.12487018  -0.64955019
 O    6.02003291   3.78313337   2.40991478  -1.38609465  -0.08792794  -0.23814177
 O    5.64871859   3.79358683   6.73932804   2.36289847  -0.98356084  -1.14742348
 O    5.79663561   3.89361460  10.67184745   0.47553758  -0.83390528   0.45560821
 O    5.72336776   7.65785449   2.40119965  -1.22232345   1.86412520   0.70636405
 O    5.95814329   7.76022346   6.52893054  -0.19750819  -0.78864670   0.27188839
 O    5.75936371   7.79639500  10.81348393  -0.20743678  -1.16081240  -0.12481243
 O    5.75170798  11.65486819   2.28019771   0.98621264  -1.90910465   1.59197693
 O    5.82206104  11.66165767   6.48626504  -0.37011068   2.26993646   0.59638916
 O    5.75214110  11.65410730  10.89885233  -0.33050701  -0.07328291  -0.34522424
 O    9.55214282   3.90647950   2.47094564   1.13931890  -4.81221370   0.08327887
 O    9.78434304   3.85350985   6.78016074  -1.03324711   0.96711587  -0.80560664
 O    9.59066727   3.87134979  10.74224178   0.85165450  -1.87685478  -0.40450220
 O    9.69355130   7.60000344   2.42614812   0.15592169   3.85582533   0.55247332
 O    9.44209472   7.78958211   6.67998036   1.47552896  -1.57845807   0.59798216
 O    9.79810930   7.74992218  10.95969617  -1.00706605  -0.83940619  -1.53654912
 O    9.74019971  11.59591678   2.49361247  -0.17759807   1.53884478   0.76156085
 O    9.82499798  11.60522305   6.56421498   0.06987552   0.84639423  -0.31379252
 O    9.64829591  11.62597778  10.69294331   0.68699296   1.41537990   0.76782698
