# total energy = -399026.83456062
CRSYTAL
PRIMVEC
 11.70600000   0.00000000   0.00000000
  0.00000000  11.70600000   0.00000000
  0.00000000   0.00000000  12.46800000
PRIMCOORD
135 1
Pb    3.63696055   3.86669080   3.95491194   1.03783811  -0.06916929   1.50994764
Pb    4.17094145   3.97569707   8.50034576  -2.01164818  -0.36191104  -0.54692052
Pb    3.88304408   3.91477905   0.06003342   0.13541151   1.17058539  -0.66718910
Pb    3.77606295   7.80187341   4.15249234   0.29679571  -0.19125243   0.01846962
Pb    3.92829948   7.59025234   8.11054621  -0.40652257   1.19985596   0.49414347
Pb    3.92797171   7.85781638   0.10960619  -0.42508220   0.34323620  -0.31525094
Pb    3.90813004   0.01489003   4.05360863  -0.95603171  -0.13208122  -0.25603653
Pb    4.08600271   0.06763727   8.30906171  -0.46356598  -0.87099943  -0.01078295
Pb    3.89026669   0.17467693   0.08568010  -1.15643614  -0.93349733  -0.80004799
Pb    7.76979897   3.68962585   4.08404302  -0.70476200   2.00945199   0.69605284
Pb    7.72473087   4.01233685   8.34352326   0.57490578  -0.49572761  -0.93078629
Pb    7.79589164   3.93472607  12.36814379  -0.63079710   0.42834769   0.22840769
Pb    7.83517698   7.57153445   4.23661393   0.42003095  -0.23169478  -0.72316682
Pb    7.78944164   7.86167936   8.49570767  -0.15347790   0.45136451  -0.69608524
Pb    7.82535565   7.97458373   0.05018370   0.36158701  -0.81893165  -0.37337805
Pb    7.78938311   0.00148666   4.29552523   0.81386240  -0.62150108  -0.11637664
Pb    8.05969806  11.57973908   8.34276271  -1.23364133   0.09752538  -0.04082039
Pb    7.39770035  11.62042914   0.22128206   2.56066408   0.22110625  -1.78803971
Pb   11.36907791   3.95851267   4.15794085   2.15346466   0.59942754   0.23046708
Pb    0.11389938   3.91749484   8.39737255  -0.46719870   0.76285311  -0.39063077
Pb    0.07810243   3.59536913  12.44606879  -0.92683674   2.55797105  -0.74827903
Pb    0.12887135   7.89900980   4.13816660  -0.90027360  -1.36040489   0.19204090
Pb    0.20513594   7.74341365   8.31417359  -0.09493315  -0.36131339  -0.49151884
Pb   11.68887412   7.93560275  12.46470845   0.02780165  -0.56184743   0.85735423
Pb   11.66188009   0.14022617   4.33886400  -0.68681803  -0.13037827  -0.82815206
Pb    0.15398072   0.25869089   8.34526878  -0.82208913  -1.24873026   0.31221227
Pb   11.57739788   0.04354632   0.17356703  -0.02794206  -1.20063363  -1.68018502
Ti    1.75763249   1.96132859   2.20010328   2.01348794   0.06624583  -0.03997072
Ti    2.04770717   1.95421135   6.28990651  -1.10165012   1.16744591  -1.14262533
Ti    1.95380164   1.94517431  10.48530124   0.42454935  -0.58098671   0.36289753
Ti    1.89420639   5.89118497   2.14645348  -0.85485921  -0.09937594   0.67997742
Ti    1.91468018   5.71794788   6.29380900  -0.13082471   2.10203773  -1.77142425
Ti    1.96920673   5.91645823  10.54675601  -1.50461917  -1.59037512  -1.92393726
Ti    1.85345780   9.81147755   2.14196500   0.11769435  -1.65516642  -1.61748910
Ti    1.93530616   9.78522099   6.34609979   0.67593787  -1.21806996   1.34742214
Ti    2.01323300   9.72090823  10.41955747  -0.68239684   2.28080426   2.28551348
Ti    5.83689254   1.92362357   2.18319667  -2.12966656   1.54997236   0.24660730
Ti    5.92506214   1.80457355   6.23043415  -0.68821135   2.13926861   0.81626021
Ti    5.87010247   1.96794248  10.50501314  -0.17809327  -0.21831961  -0.14355543
Ti    5.79394323   5.80669106   2.19264742   1.45108246  -0.40501043  -1.36499889
Ti    5.82605279   5.67755047   6.19115995  -0.21105057   1.48023063   0.51678947
Ti    5.86664920   5.95199764  10.50707036  -0.42312003  -0.60461919   1.59137961
Ti    5.78608850   9.70199133   2.27872649  -0.89953554  -0.96331515  -0.69468832
Ti    5.83416505   9.66271770   6.27089281   0.56671146  -1.20963802   2.33784768
Ti    5.76758132   9.77202833  10.43926938   1.51632740  -0.57184551  -0.95946641
Ti    9.59803034   1.93146659   2.11181737   2.72725074  -3.59995672   0.19292297
Ti    9.75437568   2.01550396   6.36833023   0.95423875  -1.04931952  -0.11299594
Ti    9.67877833   1.87231617  10.44384514   0.31386481  -0.95287063   2.06365116
Ti    9.71450504   5.77872543   2.06558603  -0.47038498   2.34642363   2.97232790
Ti    9.66175781   5.88858624   6.40644491   1.17213712  -0.90417635  -0.57086622
Ti    9.72225442   5.82407447  10.49614840   2.41555332   0.88633318   1.05244099
Ti    9.63790098   9.69394931   2.28376356   2.05051720  -0.27822528  -1.50398552
Ti    9.78321926   9.64799155   6.34422959  -0.08956148   0.64525597   0.07409452
Ti    9.80554261   9.74542059  10.47201035  -1.24734774   1.14156683   0.91376399
 O    1.78495429   1.91960841   0.33643651   1.01238387  -0.50076086   0.72080141
 O    1.97360819   1.91739598   4.42374614  -0.60325107  -0.81581377   1.55309384
 O    1.85209991   2.10977238   8.66812764   0.00661018  -1.25822430  -0.76564336
 O    2.06614412   5.87280655   0.36193357  -0.33869260  -0.02214195  -1.53738206
 O    1.83190706   5.71124034   4.42738680   1.37415450   0.51243308   1.35291983
 O    1.93017893   5.78862871   8.61951491   0.08255526  -0.03914624   2.21002203
 O    1.81027437   9.61292038   0.33390551   1.21740030   0.60265342   0.10544608
 O    2.00406720   9.79986520   4.55856263  -0.41836761  -0.30882797  -1.06000166
 O    1.98095956   9.66593685   8.64341606  -1.01472047   0.12219835  -0.43650240
 O    5.83539418   1.85741443   0.36884084  -0.37619350   0.33386817  -1.75001316
 O    5.97407516   1.82132483   4.37947228  -0.62978181  -0.07853371   1.49343299
 O    5.84791960   1.74743656   8.71301244  -0.14334661   0.65836472  -1.27448333
 O    5.86899040   5.71472873   0.34843073  -0.92469815   0.16286753  -0.85198616
 O    5.67907225   5.69447735   4.42803514   0.70169813  -0.14690372  -1.16885363
 O    5.99317935   5.78056327   8.69032068  -0.68562992   0.53689003  -0.54124642
 O    5.95762823   9.62793917   0.44081861  -0.84651367   0.15571010   0.10534167
 O    5.69715802   9.82112329   4.49425268   0.05607133  -0.40417516  -1.81866040
 O    5.83822703   9.80604596   8.61425341  -0.40168014   0.08481986   0.56782396
 O    9.84423094   1.78823197   0.33777059  -1.30292583   0.92797444   0.02982142
 O    9.72589498   1.84123674   4.50404006  -0.08763531   0.54635167   0.31321676
 O    9.88088242   1.76025463   8.66538468  -1.13948945   0.43024865  -2.00242417
 O    9.61111765   5.69560112   0.34555062   0.44426469  -0.61488730  -3.10389428
 O    9.66831317   5.87692706   4.57907249   1.20327266  -0.82093342  -0.38184239
 O    9.63266840   5.93619454   8.69323819  -0.21979934  -0.58095791  -0.19755658
 O    9.74041042   9.74800762   0.45510694  -1.08147035  -0.49503275   0.35294625
 O    9.90243317   9.38879730   4.55734076  -1.65872353   1.35734462  -1.52065138
 O    9.62795088   9.79292354   8.65487416   0.95330627  -1.26367878  -1.23423899
 O    3.84483570   1.86257678   2.40950334   0.20048364   0.45346710  -0.27557904
 O    3.87378464   1.83640216   6.62267743   1.17046298  -0.03660442  -0.29063917
 O    3.91455664   1.94902559  10.71893909  -1.50939319  -0.27772843   0.97605667
 O    3.87580978   5.54691151   2.36138933  -0.78272326   1.00935240   0.10692941
 O    3.90670191   5.79182444   6.57069834   0.36525933  -0.20482202   0.60802149
 O    3.87904063   5.69755603  10.71342823   0.84141563   0.31387561   0.36992535
 O    3.78466686   9.75655300   2.41147328   2.98604871  -0.35164294   0.46491610
 O    3.80853539   9.64550988   6.72087540   2.59609840   1.11907205  -0.95839352
 O    3.86374089   9.69348107  10.88269380  -0.24715094   0.20531166  -0.27474377
 O    7.78532113   1.69546192   2.39633713  -0.58102272  -0.06359960   0.37176511
 O    7.80492868   2.02815815   6.46076798  -1.16725149  -1.08297888   0.87713437
 O    7.68131332   1.76154229  10.79549261   2.61376515   0.58571033   0.31707630
 O    7.70836588   5.82083191   2.35867130   1.31809036  -0.61170462   1.67152986
 O    7.77206993   5.61211393   6.31470536  -1.20888556  -0.45045363   2.03978466
 O    7.79990680   5.87026635  10.74468551  -0.46258310   0.12096704   0.56131818
 O    7.71680591   9.48196535   2.53831025   0.38022225   1.71330793   0.44266614
 O    7.72703695   9.87865828   6.52826974   0.68241124  -0.66307754  -0.11312555
 O    7.78334281   9.65281442  10.62885779  -1.22237594  -0.55254781   1.33642678
 O   11.63478070   1.89949750   2.49851239  -0.86007607  -0.10286465   0.17020857
 O   11.69274881   2.09169832   6.60034724   1.07850368  -1.47942056  -0.11145141
 O   11.61118140   1.83586369  10.86778207   0.79693011   0.36372920  -1.22452893
 O   11.69475053   5.82292729   2.52206444  -1.30283222  -0.73965627  -1.12801164
 O   11.67116294   5.84054482   6.69207432  -0.53084150   0.00055445  -0.22909536
 O    0.03530530   5.70958979  10.80710032  -1.27329162   0.35655017  -0.49488874
 O    0.00920092   9.42585850   2.35909522  -2.03134191   1.26973451   1.12573984
 O   11.67083518   9.44938756   6.53142414   0.83877299   0.32634351   1.10475359
 O   11.62522860   9.69137399  10.88175870   2.13717683   0.68315290  -1.43177396
 O    1.84312141   3.87285986   2.36581547  -0.11792117  -1.34446268  -0.01050572
 O    1.99869415   3.89188211   6.42305228  -0.20699301  -2.74252328   1.44145522
 O    1.87686980   3.82816636  10.77429701   0.30692340   0.17869812   1.10053402
 O    2.03593093   7.80551398   2.51747622   0.57546743  -2.35830468   0.09687732
 O    2.09311474   7.66778118   6.60689294  -1.65623571   1.56128816  -0.10809231
 O    1.93223918   7.80060916  10.69495066  -0.19574562  -1.24109399   0.37178671
 O    1.84759310  11.63320039   2.41848030  -0.40447398   2.51705345   0.48062428
 O    1.81336475  11.69245616   6.65879723   0.17748842   0.27497419  -0.58508027
 O    1.91905823  11.69672885  10.74022196   0.24694213  -0.35136211  -0.36869404
 O    6.01014134   3.76807946   2.40941606  -0.86899045   0.00869837   0.33746849
 O    5.73234626   3.85880096   6.76780495   1.19736814  -2.30637371  -0.92046058
 O    5.89508307   3.91209838  10.68682152   0.03051628  -1.39371862   0.16109257
 O    5.67045664   7.67577638   2.43057426  -0.69745336   1.82004292   0.78744328
 O    5.98585139   7.70396443   6.51853223  -0.97311161   1.07113744   0.18181240
 O    5.71614515   7.81562796  10.78587978   0.57323163  -1.12761201   0.07982982
 O    5.72534607  11.67461621   2.27937482   1.01127857  -2.67190667   1.22919494
 O    5.89575031  11.68758646   6.48481876  -1.26301272   0.28347814   0.48033626
 O    5.72006666  11.59228792  10.87740737   0.10546768   1.29691330   0.46721310
 O    9.59561891   3.73877934   2.48202970   0.57591747   2.75760141  -0.11034611
 O    9.71690477   3.82118958   6.76044883   0.20831433   1.88730044  -0.24894030
 O    9.61139860   3.78923220  10.66814446  -0.04240453   1.03617476   0.25195737
 O    9.65555363   7.62021970   2.38142540   0.11180064   1.36073972   0.18768451
 O    9.38077869   7.73093505   6.71991536   1.17660152   0.65872835  -0.25523005
 O    9.85624129   7.75932210  10.96308746  -1.76541532  -0.85815710  -1.53297887
 O    9.79839024  11.59707567   2.46607066  -0.24171447  -0.84645607   1.40640253
 O    9.85047023  11.62456136   6.46386005  -0.30030602  -0.06617382   0.58245204
 O    9.66515255  11.64552680  10.68936499   0.32943258  -0.54637687   0.58131794
