# total energy = -399025.95291171
CRSYTAL
PRIMVEC
 11.70600000   0.00000000   0.00000000
  0.00000000  11.70600000   0.00000000
  0.00000000   0.00000000  12.46800000
PRIMCOORD
135 1
Pb    3.63641037   3.86566067   3.97377602   0.07911045   0.48891858   0.03737267
Pb    4.16340278   3.98026241   8.50162997  -1.86657899  -1.35959356  -0.51293453
Pb    3.87794027   3.93277117   0.05436048  -0.41807831   0.40058128  -0.62866486
Pb    3.76921494   7.80159247   4.15582129   1.17133965  -0.19661819  -0.86484090
Pb    3.92033940   7.59036940   8.11156859  -0.66173515   1.77852399   1.09568992
Pb    3.91738949   7.86148036   0.11357101  -0.38791461   0.23940674   0.01632081
Pb    3.89765317   0.00650854   4.07208620   0.08459951  -0.32451333  -0.85566109
Pb    4.09697123   0.06049661   8.29491053  -0.91963219  -0.09371658   0.22349369
Pb    3.86952365   0.15703599   0.08515644  -1.59334918   0.06018626  -0.52623897
Pb    7.76265831   3.70376669   4.08856890  -0.26750551   1.47558528   1.17467491
Pb    7.73782988   4.02150265   8.34333624   1.05480948  -1.29916683  -0.89288739
Pb    7.79680471   3.94237009  12.36687205   0.11714181   0.16894287   0.08720290
Pb    7.84203670   7.56544733   4.24819670   0.34146147   0.72984134  -0.68652480
Pb    7.79671106   7.86709924   8.50301392   0.63496944  -0.01361810  -1.16008446
Pb    7.83365520   7.98021432   0.05383682   0.47444314  -1.41191739  -0.20514976
Pb    7.80079646  11.69808674   4.30424036   0.30889826  -1.32979057  -0.27821179
Pb    8.06367810  11.57169706   8.34841072  -1.19750941   0.77361269  -0.78002705
Pb    7.39050116  11.60747060   0.21923731   2.44987807   0.75689457  -0.75704618
Pb   11.34893188   3.97031231   4.15635742   2.86360695   0.20840138   0.67869897
Pb    0.12047815   3.92969249   8.40078878  -0.29151623   0.16744252  -0.60823510
Pb    0.07051694   3.60479246  12.43586996  -0.73636548   2.58170442  -0.51721600
Pb    0.12178922   7.90235771   4.14976184  -1.20158700  -1.36031498   0.72482277
Pb    0.22223841   7.74116609   8.31660485  -0.80602952   0.17384643  -0.02810400
Pb   11.68064480   7.93865802  12.46690282  -0.01596010  -1.15759086  -0.22393804
Pb   11.64985802   0.14149042   4.35212995  -0.86044442  -0.17303091  -0.57174068
Pb    0.15676675   0.24905686   8.34836084  -0.50380700  -0.95320434   0.52772363
Pb   11.56738925   0.02094203   0.16056290  -0.29143782  -0.11748161  -1.77465550
Ti    1.75001188   1.93555198   2.20395589   2.46874476   1.98505908  -1.17561589
Ti    2.04623221   1.94223611   6.27615431  -0.76887641   1.67470753   1.13535232
Ti    1.95706761   1.97641763  10.45871946   0.63037431  -0.46796082  -0.07289997
Ti    1.86835954   5.90409669   2.10290275   0.73656936  -2.22210291  -0.09089364
Ti    1.92928927   5.78123051   6.30483071  -2.07503265  -1.90616297  -1.62021944
Ti    1.99388298   5.93090343  10.52799167  -2.76510182  -2.53484352  -1.10677260
Ti    1.84202104   9.83443301   2.15454521   1.28045175  -1.60463574   0.77982317
Ti    1.95232668   9.77359693   6.30474343  -1.87261696   0.23895716   2.72999796
Ti    2.01281158   9.76824729  10.48141122  -1.36264652   1.90396735  -2.18663835
Ti    5.84605834   1.95117949   2.18243612  -2.26358454  -1.57185297  -0.67297466
Ti    5.91739471   1.78460311   6.21949972  -0.83994669   3.15002097   4.13256303
Ti    5.91831948   1.95088684  10.51723178  -1.26808829   0.88287638  -2.49624757
Ti    5.81359760   5.76422170   2.15923318  -0.73849838   1.81541048   0.11984974
Ti    5.78629921   5.65580072   6.20678236   1.58715438   0.01819755  -2.68858952
Ti    5.87621300   5.98887154  10.50674620  -0.42091171  -2.56154127   3.60889608
Ti    5.79928117   9.66674456   2.23709584  -1.17468537  -0.49605436   3.11038994
Ti    5.81984861   9.63067838   6.28230103   1.82522806   1.17792653  -0.37979080
Ti    5.83912839   9.80157427  10.42293630  -0.61715874  -1.77842466  -1.22826906
Ti    9.61232337   1.89614959   2.15947007   3.15045487  -4.12477902  -0.09098773
Ti    9.75397768   2.00448862   6.35402944   0.63023317   0.55127432   1.52162021
Ti    9.68629358   1.87046662  10.43511754   0.82784462   0.48627337   0.66798746
Ti    9.72555551   5.79693997   2.08004891  -0.25092854   1.78505858  -2.28912174
Ti    9.66331471   5.87998233   6.40521058   1.29086005  -0.97240037  -0.30667127
Ti    9.70030567   5.83950298  10.50059947   3.71680581  -0.40485229   1.55609675
Ti    9.62968337   9.65279101   2.24187108   1.27565274   1.43612677   2.04751938
Ti    9.76836435   9.66998713   6.33042751   0.40116678  -0.36606292  -1.31986844
Ti    9.81800950   9.74964646  10.45723577   0.52481704   1.03225205  -0.54019164
 O    1.84371841   1.89232172   0.33474086   0.00248315  -0.33646903   0.72193186
 O    1.93633628   1.87881300   4.45600086   0.15505293  -0.58034021  -0.53409617
 O    1.89020294   2.12826786   8.61530072   0.06734817  -1.41277996   1.09618133
 O    2.11327247   5.89062308   0.30693722  -0.83295206   0.45761524  -1.19651615
 O    1.76761771   5.73143319   4.45121315   2.11599151   0.22588273   2.05177994
 O    1.93345661   5.67076099   8.59917960   0.47483521   1.27849137   1.69128972
 O    1.88450212   9.65380943   0.38779220   0.37203815  -0.13159111  -1.92626862
 O    1.98811192   9.85093847   4.51817878  -0.38680634  -0.55462003  -1.58890043
 O    1.93537639   9.72617593   8.65870183  -0.85835335  -0.55489710   1.06030377
 O    5.85124410   1.94289164   0.33308262  -0.10408307  -0.89879989   0.13481136
 O    6.04212214   1.81517918   4.44812108  -1.32152038   0.38940973  -3.46794743
 O    5.83611995   1.71779697   8.64189497   0.36379933   1.00309207   2.77158937
 O    5.90519705   5.68925647   0.35018872  -1.10966351   0.58293836  -1.67647449
 O    5.61617591   5.68740692   4.35034703   1.49709195  -0.23533960   3.25909647
 O    6.04335127   5.77325873   8.75625146  -0.95786742   0.76398331  -3.24814448
 O    5.95728875   9.57904321   0.46727570  -0.35355308   0.42576823  -3.86038398
 O    5.71640269   9.94405970   4.47112454  -0.17714509  -1.76774974   1.96310284
 O    5.87870638   9.83572067   8.57926820  -0.40785298  -0.26168187   1.32686830
 O    9.78884985   1.80424578   0.39590887  -0.42035235   0.17097643  -1.41483966
 O    9.77638296   1.80422237   4.52794122  -0.28771048   1.10324392  -0.53885858
 O    9.85537505   1.79512681   8.63264371  -1.19742576  -0.47661785  -1.48771349
 O    9.71795831   5.65713521   0.24465956   0.22170059   0.10833840   3.57553827
 O    9.72728800   5.81651240   4.55159302  -0.08561368   0.11243167  -0.78142807
 O    9.63238745   6.01738736   8.72347309  -0.50726250  -1.08987152  -1.42995811
 O    9.68280520   9.74380516   0.46041830  -0.42232319  -0.35208411  -2.65621451
 O    9.84315398   9.37945591   4.49275652  -1.24173556   0.97161099   0.70147073
 O    9.66754057   9.73463936   8.58467932   0.15216202  -0.44848772   1.56740421
 O    3.81053712   1.92234761   2.39019041   2.12565225  -0.11385360   0.40893510
 O    3.94694714   1.84376524   6.62507129  -0.93521067  -0.05830952  -0.81505249
 O    3.87271939   1.97093922  10.75942268   0.71467585  -0.49320005   0.34353163
 O    3.90130544   5.61686657   2.28008550  -0.87629997  -0.38952996   1.04157823
 O    3.88286849   5.75009255   6.62328836   1.26895085  -0.02033044   0.09756938
 O    3.89226841   5.66230926  10.66636153   1.68248109   0.52613964   0.23724771
 O    3.82361272   9.74503429   2.41243332  -0.27971736   0.07456760   0.51592999
 O    3.73365211   9.69735575   6.74117330   5.06863627   0.35538800  -1.08274619
 O    3.82111934   9.67534847  10.80633977   2.88895073   0.30453838   0.57687949
 O    7.81034855   1.64811115   2.42434026  -2.63182217   0.57160999   0.30725677
 O    7.78855198   2.04275553   6.45524466   1.61637710  -1.37083830   0.93153561
 O    7.73900048   1.75361733  10.77470845   0.43443049  -0.26701933   0.32723173
 O    7.72075083   5.77647788   2.27063476   2.49357100  -0.12629024   2.15318643
 O    7.77809852   5.48993841   6.39345325  -2.32154380   1.95909844   0.42041509
 O    7.83038923   5.86870945  10.81931896  -1.78064120   0.45611490   0.09717208
 O    7.71723903   9.49371818   2.57039041   0.80720575   1.28431500  -0.01747090
 O    7.73641346   9.85154719   6.48417042  -0.54620347  -0.71038392   0.17344390
 O    7.78246486   9.64999328  10.67683465  -1.02909454  -0.08581233   0.54503247
 O   11.66213762   1.94369936   2.52636590  -1.53808740  -0.87332019   0.09730277
 O    0.07407557   2.08293052   6.61467298  -2.07322387  -1.54403649  -0.28895467
 O   11.58355524   1.89179495  10.84899280   1.62074744  -0.59421969  -0.73687780
 O    0.01158894   5.81593880   2.48883722  -3.43864107   0.24377185  -1.10213042
 O   11.63657171   5.90849815   6.69785947   0.58011019  -0.44103305  -0.27812292
 O    0.03381863   5.69823497  10.79053034  -0.49168402   0.51047229  -0.55608378
 O   11.68384054   9.35791687   2.36094048   0.35106994   1.84122475  -0.00716192
 O   11.61404937   9.38828224   6.52396828   1.53052295   0.59341463   0.48568787
 O   11.69799310   9.75326361  10.81763578  -1.08552209  -0.46370026   0.13828254
 O    1.80682110   3.91765873   2.30756497   0.97246310  -1.80154668   0.88335733
 O    1.94245852   3.83300093   6.47501891   0.57890260   1.23321445   0.16127909
 O    1.90290395   3.83485048  10.80132763  -0.02920181   0.17977462   0.83568091
 O    2.10187083   7.71310681   2.55267338  -0.46205354   1.21817965  -0.37691035
 O    2.05852351   7.71147968   6.58006181  -0.66074189   0.31511920   0.15674147
 O    1.92432593   7.77429407  10.67420390  -0.05694510  -0.15488041   0.54102807
 O    1.86824248  11.68724699   2.32381078  -0.57881895  -0.23904603   0.86704698
 O    1.72918691  11.66481829   6.68623930   1.22360075  -0.06818460  -1.54605960
 O    1.90676693   0.02430166  10.70352864   0.30414630  -0.63175442   0.40555280
 O    5.96418359   3.75644369   2.42162224  -0.29341911   0.61919231   0.45126361
 O    5.85604356   3.83645420   6.75452653  -1.31810671   0.00804017  -0.70687615
 O    5.98733806   3.87193509  10.70684513  -0.67018831  -1.30751021  -0.30566233
 O    5.59457834   7.75520159   2.48941075   0.65653361  -1.88346962   0.26244511
 O    5.97214367   7.68924998   6.51652488  -1.22413920   0.83607821   0.09610563
 O    5.69775503   7.79530634  10.76276411   0.73613547   1.07740351   0.07118529
 O    5.74275289  11.60038847   2.32718960   0.71311277   1.69481318  -0.01673902
 O    5.91485450   0.00916580   6.50534108  -1.12436374  -3.10403309   0.60966748
 O    5.69450076  11.58440978  10.87406594   0.55041175   1.28749343   0.44118988
 O    9.65984973   3.68467421   2.49096925  -0.31453370   5.22715515   0.06708156
 O    9.66477796   3.85931602   6.72884245   1.83211814  -0.07327636  -0.27801314
 O    9.63017502   3.74931474  10.60912094  -0.57131724   1.96951720   0.73077710
 O    9.62542238   7.69029182   2.34817325   0.20952010  -2.70416800  -0.13905100
 O    9.37153095   7.69773683   6.74594855   0.43676726   1.22286887  -1.18238051
 O    9.84179609   7.74278152  10.90543543  -0.95804517   1.67342152  -0.46176079
 O    9.84371587  11.57217701   2.49604373  -0.03372375  -0.68527016   0.92079796
 O    9.86232841  11.64050493   6.39412652  -0.42306552  -0.72026424   1.23669608
 O    9.69550621  11.64075076  10.71058553   0.10990147  -2.18990042   0.31013199
