# total energy = -399026.54067765
CRSYTAL
PRIMVEC
 11.70600000   0.00000000   0.00000000
  0.00000000  11.70600000   0.00000000
  0.00000000   0.00000000  12.46800000
PRIMCOORD
135 1
Pb    3.63652743   3.86601185   3.99330091   0.49643025   0.26536957  -0.24777979
Pb    4.14956629   3.98066042   8.50118112  -0.96320462  -0.85796201  -0.48457918
Pb    3.87152538   3.95229678   0.04636849  -0.26417812  -0.36452097  -0.90896886
Pb    3.76622991   7.80076134   4.15670652   1.67097667   0.06572728  -0.25948634
Pb    3.91050636   7.59639799   8.11635630   0.57548558   1.83706089   1.32337926
Pb    3.90542596   7.86619788   0.11716180  -0.06241730   0.72270045  -1.01857191
Pb    3.88732848  11.70292132   4.08799537   1.06723815  -0.36810590  -0.56904187
Pb    4.10514202   0.05253653   8.28142015  -0.47583364  -0.57901764   0.37798297
Pb    3.84366510   0.13909069   0.08260050  -0.61769049  -0.04058340  -0.95211142
Pb    7.75455776   3.72315183   4.09672297   0.30687300   0.91592018   0.33430108
Pb    7.75440558   4.02658306   8.34030652   0.60576539  -1.05364572  -0.20129552
Pb    7.79803384   3.95062282  12.36607410   0.61965745  -0.20615651   0.54285812
Pb    7.85021919   7.56158435   4.25764745   0.46147628   1.02004888  -0.35093207
Pb    7.80595880   7.87240206   8.50646755   0.63763498  -0.72311287  -1.42476551
Pb    7.84348824   7.98125615   0.05665459   0.14473326  -1.25954138  -0.58122429
Pb    7.81316970  11.68422684   4.31207027  -0.76862776  -1.28669098  -0.31816713
Pb    8.06350251  11.56597283   8.35150278  -1.29152729   0.81690978  -1.30512677
Pb    7.39154299  11.59684155   0.21429998   1.72432412   0.71971477  -0.62225538
Pb   11.33810383   3.98283773   4.15675639   2.20234326  -0.22949910   0.07663013
Pb    0.12602680   3.94266274   8.40216026  -0.43956837  -0.18560219  -0.78914683
Pb    0.06022737   3.62313577  12.42392562  -0.94534694   2.48729777   0.01703283
Pb    0.11052805   7.90109347   4.16376341  -1.42940794  -1.01870233   0.61654486
Pb    0.23656655   7.73957408   8.31901117  -1.58070476   0.92406647   0.61351688
Pb   11.67223990   7.93796737   0.00047378  -0.16351097  -1.09053492  -1.02538574
Pb   11.63507335   0.14226302   4.36353817  -0.22113426  -0.17605647  -0.16439575
Pb    0.15778517   0.23591102   8.35317349  -0.41319779  -1.12386739   0.32780097
Pb   11.55640903  11.70351833   0.14137465  -0.18528494   0.01724081  -1.81734905
Ti    1.77683033   1.93682794   2.19231078   1.25204369   1.72004124  -0.76486306
Ti    2.03273519   1.95418793   6.27652835  -0.69667885   1.39319554   1.45523567
Ti    1.97072851   2.00041493  10.43253666   1.45280694  -0.70891062   0.71352133
Ti    1.84964165   5.88681863   2.05628490   0.08389164  -2.16119938  -1.98523456
Ti    1.91696285   5.82127674   6.29607817  -1.24517345  -2.54448396   1.84960992
Ti    1.98128732   5.91028916  10.49375454  -1.26480069  -1.43795608   0.84295253
Ti    1.84828375   9.83492467   2.17400776   1.51137140  -0.29887829   0.12875440
Ti    1.94872123   9.76496961   6.29929492  -0.00166028   1.30158061   0.69990070
Ti    1.99739478   9.84236968  10.51729412   1.18455038  -0.09228821  -2.32456935
Ti    5.82300923   1.95869474   2.17256147  -1.08319586  -2.26897647  -1.00501120
Ti    5.89998788   1.80554515   6.25896094   0.64918290   0.55432144   0.48847784
Ti    5.94945744   1.94360571  10.49771936  -1.10621768  -0.44344235  -0.50043114
Ti    5.82666150   5.74457903   2.12484643  -0.12375242   1.17529371   0.02110774
Ti    5.76914992   5.63710624   6.19005030   2.60703873   0.51735469   0.28446806
Ti    5.88004086   5.99209069  10.55109487  -0.06550520  -1.43372607  -0.33120260
Ti    5.79722091   9.62631204   2.23072469  -0.06290375   1.59316214   0.42380101
Ti    5.82991577   9.61384515   6.29221309   1.19065569   1.92847490  -0.41327534
Ti    5.90142772   9.80777845  10.39212787  -2.98827176  -0.90166505   1.42321450
Ti    9.66879311   1.80707863   2.20550192  -0.03263099   1.06756245  -0.58665986
Ti    9.76274547   1.99958380   6.36042552  -0.03822165   0.75359361   1.72029151
Ti    9.70433253   1.87485637  10.43551651  -0.05554001   1.16223709  -1.58765960
Ti    9.73291858   5.83770026   2.06821678  -0.13671739  -1.84337065  -1.80697848
Ti    9.68188042   5.85849011   6.39824096  -0.21729905   0.22837462  -0.80752269
Ti    9.72953555   5.85168893  10.52517390   2.07260891   0.10356470  -0.14259006
Ti    9.64025389   9.62943754   2.22230879   0.21756695   0.89726584   0.58779138
Ti    9.75770018   9.68704277   6.29946947  -0.20036844  -1.06860585  -0.85916404
Ti    9.83550997   9.76638604  10.43641421   0.34375515  -1.25895270  -0.48357455
 O    1.90371166   1.85145608   0.36256944  -0.89186906   0.22122944  -0.00080723
 O    1.90485885   1.81570595   4.47168560   0.68862773   0.14112718  -0.94586159
 O    1.93068229   2.08632526   8.60253349  -0.08771627  -0.91370647   0.93219866
 O    2.12288310   5.92546014   0.21078401  -1.44431519   0.05377751   2.28724305
 O    1.79120530   5.76229021   4.54818925   1.33220587  -0.00489271  -1.89734204
 O    1.95530000   5.60445821   8.64957526   0.21870553   1.42188557  -0.20893069
 O    1.97548115   9.69116328   0.37198278  -0.58925779  -0.45170849  -0.38298848
 O    1.95492541   9.87630538   4.42267390  -0.27442179  -1.09608681   1.57600945
 O    1.85385581   9.76470037   8.70755146  -0.00471646  -0.60778875  -0.68731643
 O    5.86181462   1.99246655   0.30027931  -0.02520732  -1.24365417   1.56190590
 O    6.05163911   1.82352556   4.40766242  -1.85657533   0.24700076   0.97527072
 O    5.83846115   1.73017021   8.67024720   0.36815877   0.66296921   0.83836298
 O    5.89296428   5.68820293   0.29130235  -1.03909097   0.61528291   0.74014571
 O    5.61472437   5.67079611   4.38968357   1.03951397  -0.06903374   0.49860166
 O    6.05056216   5.79807545   8.70635453  -1.22535586   0.33736079   0.26713560
 O    5.93795044   9.54883003   0.36482615  -0.47154018   0.59707625   1.27299281
 O    5.72803845   9.99259278   4.51049849  -0.33563001  -2.24092094   0.01947566
 O    5.90271538   9.85493022   8.59429214  -0.06973169  -0.37883602  -0.19736161
 O    9.71443481   1.82898056   0.40449932   0.61594561  -0.41868270   0.01423045
 O    9.81421675   1.81404370   4.52989870  -0.49603193   1.14843316  -0.78471942
 O    9.77988305   1.81083626   8.54418325  -0.35387192  -0.86531518   1.92382541
 O    9.83401160   5.62269616   0.26288778  -0.45405262   0.68756318   0.56226328
 O    9.78409721   5.76216144   4.50113502  -1.09116237   1.38109772   1.63078101
 O    9.61145713   6.04969592   8.70347442  -0.30493778  -1.69119258   0.27897257
 O    9.60741856   9.72408055   0.37527433   0.69539927  -0.07700378   0.40390235
 O    9.73262593   9.41190494   4.45107600   0.37850467   0.20793663   1.10651025
 O    9.71544152   9.65732123   8.57137596  -0.40564370   0.69702430   1.42073642
 O    3.85575740   1.97792770   2.38768434   0.29604066  -0.57853824   0.74502784
 O    3.98369227   1.84888076   6.59331529  -2.01843660  -0.04363254  -0.72665903
 O    3.85294796   1.97288242  10.81529179   0.72524903  -0.25140702  -0.36763707
 O    3.89019645   5.67270419   2.24234486  -0.42180233  -1.07480987   1.31193708
 O    3.90263993   5.70784560   6.68096533  -0.84063661   0.31270337  -0.34222882
 O    3.96903636   5.64805135  10.63035395  -0.42418524   0.13515934   0.31905895
 O    3.85924579   9.73590361   2.43542431  -1.72518070   0.25807281   0.28146828
 O    3.84862844   9.76520373   6.71290835  -0.64134329  -0.50487264  -0.94449388
 O    3.88083165   9.67074802  10.75106912   0.04095706   0.41512244   0.56281671
 O    7.74701909   1.62687647   2.46334016   1.89763109   1.40311491  -0.37536036
 O    7.82805973   1.99634124   6.48926983   0.83894813  -1.48019976   0.54281229
 O    7.82364657   1.73587103  10.76716531  -0.35035396  -0.53857171  -0.00526989
 O    7.81580355   5.72635279   2.27454971  -2.93851629   0.46511762   1.74644354
 O    7.69813484   5.45135543   6.49101535   0.96268292   3.52465444  -1.30952598
 O    7.79703883   5.88515638  10.89849076   0.38411648   0.19192958  -0.43948377
 O    7.74746392   9.56110962   2.60092454  -0.19379783   0.37185298  -0.70127193
 O    7.73362743   9.79456238   6.44878624   1.02416962  -0.21496550   0.81360333
 O    7.74348388   9.64320380  10.74836357   1.06973738   0.38811384  -0.55612272
 O   11.62981735   1.95155408   2.55575298  -0.05666096  -1.01512092  -0.68237437
 O    0.08229318   2.00795359   6.61778998  -2.05625992  -0.86731386  -0.09754752
 O   11.62061644   1.92411522  10.79627809   0.64739925  -0.92208189  -0.32702547
 O   11.62318005   5.81808100   2.41005193   2.82449994   0.78145174  -0.00329236
 O   11.62556807   5.95717169   6.69145092   1.20912321  -0.90007527  -0.24595383
 O    0.00710554   5.70829043  10.74917399  -0.36772872   0.30265005  -0.53545208
 O   11.66209079   9.36824156   2.36484296   1.56353798   1.54312114  -0.64077929
 O   11.62229039   9.35461578   6.53651108   1.32532858   1.15565238  -0.52291010
 O    0.02788369   9.79690358  10.75782678  -1.71348120  -1.17563564   1.40584679
 O    1.80930277   3.89258447   2.28540934   0.95095875   0.23782164   1.07140471
 O    1.90842918   3.81404892   6.53723423   0.59126704   1.85157687  -0.51134456
 O    1.92777920   3.84866356  10.86410401  -0.38863554  -0.05505708   0.10187975
 O    2.14630681   7.66058199   2.57055250  -1.83845327   1.65279115  -1.03921082
 O    1.99580276   7.77106322   6.55967663   0.79706752  -0.80141033   0.35127752
 O    1.91379053   7.73907072  10.67565019   0.10384670   0.58291982   0.27029401
 O    1.86463703   0.02604585   2.26721852  -0.39133217  -2.90918118   1.15974138
 O    1.69638670  11.63372716   6.64994495   1.57723968  -0.41766397  -1.17677422
 O    1.90755123   0.03426346  10.68329308   0.25503073   0.13472929   0.85659079
 O    5.90407328   3.77608636   2.45241820   0.11422080   1.77294102   0.12885310
 O    5.92567085   3.79925254   6.70976641  -2.79384648  -0.89143548  -0.44870518
 O    6.05156888   3.78207983  10.71350304  -1.03317601   1.03678914  -0.65645499
 O    5.54721587   7.76362991   2.56009184   1.97341169  -2.50868399  -0.41370539
 O    5.90578235   7.70699628   6.51827040  -0.91472873  -0.57046950  -0.10033580
 O    5.71176711   7.80764447  10.74154357   0.74315254  -0.07119457  -0.17184056
 O    5.78961201  11.57946985   2.37611404  -0.20864869   1.21525319  -0.93924515
 O    5.88585874  11.64080929   6.55159736  -0.38915019   1.42065535   0.49816103
 O    5.69317798  11.63050801  10.88945146   0.88911250   0.28931494   0.14791282
 O    9.71115713   3.82368296   2.50095612  -0.93604092  -1.88807832  -0.13101746
 O    9.68799095   3.90057967   6.68495509   1.95256479  -0.82926493  -0.20698488
 O    9.62781041   3.78594281  10.58022012  -0.07466670   0.24455441   0.72158302
 O    9.60416429   7.67288500   2.31177916   0.24161808   0.89745619   0.39135332
 O    9.38413831   7.71101144   6.72045149   0.25822791  -0.19682229  -1.72808883
 O    9.78484640   7.78458365  10.82651299   0.05941047   0.41916915   0.65482996
 O    9.88596283  11.52249674   2.56401926  -0.27428784   0.99704469  -0.38846281
 O    9.85672124  11.62664503   6.37652171  -0.21618868  -0.77183552   1.26746560
 O    9.73164263  11.56263662  10.74520916   0.03721702   1.95362582  -0.04988237
