# total energy = -399026.07264180
CRSYTAL
PRIMVEC
 11.70600000   0.00000000   0.00000000
  0.00000000  11.70600000   0.00000000
  0.00000000   0.00000000  12.46800000
PRIMCOORD
135 1
Pb    3.63838868   3.86743999   4.01303776   1.25354044   0.72301980  -0.10489085
Pb    4.13167952   3.97829581   8.49899922  -0.08021352   0.22477497  -0.54254271
Pb    3.86403354   3.97169362   0.03498521   0.52215169  -0.53780473  -0.74690452
Pb    3.76848917   7.79994192   4.15649456   0.82910621  -0.34653656  -0.19797661
Pb    3.90214828   7.60894682   8.12576964   1.57489930   1.40250776   0.80168351
Pb    3.89245571   7.87361948   0.11758571  -0.23259484   1.05739260  -1.46233912
Pb    3.87986005  11.69154309   4.10278242   1.06213943  -0.40214359   0.11200667
Pb    4.11188468   0.04207136   8.26837862  -0.39374807  -1.20419905   0.04854434
Pb    3.81437669   0.12000991   0.07669067   0.18192505  -0.53555972  -1.12401653
Pb    7.74698398   3.74664577   4.10644801   0.27865064   0.18973165  -0.85501454
Pb    7.77388436   4.02843260   8.33629182  -0.05461515  -0.14182051   0.20167843
Pb    7.80122958   3.95846584  12.36700920   0.50861524  -0.87270003   0.72487071
Pb    7.86025123   7.56101075   4.26630024   0.08224598   0.88188374  -0.20440609
Pb    7.81784039   7.87549244   8.50517088   0.43271019  -1.24637591  -1.46449999
Pb    7.85424605   7.97793165   0.05757722  -0.35387378  -0.86051413  -1.07754450
Pb    7.82365828  11.66543871   4.31908975  -1.27296615  -0.37415853  -0.59172911
Pb    8.05891376  11.56269515   8.35035572  -1.18184642   0.70554242  -1.35501286
Pb    7.39897630  11.58817911   0.20686906   1.94791097   0.63058053  -0.72460503
Pb   11.33439303   3.99519927   4.15745460   1.60777732  -0.55733671  -0.50072895
Pb    0.13027607   3.95571493   8.40092593  -0.72893120  -0.24755268  -0.89642977
Pb    0.04600458   3.65078534  12.41134541  -1.44278943   1.39270414   0.30939436
Pb    0.09403430   7.89630571   4.18043312  -0.37860868  -0.52877600  -0.13851721
Pb    0.24625912   7.74111927   8.32344978  -1.64652689   1.69514651   0.50511711
Pb   11.66303898   7.93374150  12.46675320   0.43527401  -0.09678758  -0.94685602
Pb   11.61887224   0.14240349   4.37493392   0.70830107  -0.31355227   0.10319492
Pb    0.15739888   0.21807107   8.35930775  -0.39089643  -1.65363386  -0.12656599
Pb   11.54417626  11.67899426   0.11504224  -0.38197840  -0.02259174  -1.47215603
Ti    1.82411086   1.96130518   2.17037957  -0.05025356  -0.46312180   1.06472096
Ti    2.00828136   1.98705838   6.29555452  -0.37337920   0.46210336  -0.62615694
Ti    2.00556557   2.01482501  10.41702647   1.20590384  -1.00398629   2.20395659
Ti    1.83370978   5.84036923   1.98382088   1.01131023   1.01285118   1.06195345
Ti    1.88603560   5.82739898   6.31037897   0.54982679  -1.18407814   1.58421142
Ti    1.94911924   5.86902551  10.47106278   0.60649212   1.20833039   2.87793610
Ti    1.87630792   9.82819372   2.19618833   0.62272080  -1.03756837  -1.08343376
Ti    1.94202540   9.77299993   6.30468109   0.45787018   0.54625338  -1.08059983
Ti    1.99573253   9.91803727  10.52159558   1.82130070  -2.66989904  -0.97392892
Ti    5.78497643   1.93571587   2.14964528   1.75313581  -0.52502104   0.82322581
Ti    5.88947590   1.83876677   6.30969323   0.92513660  -0.76872578  -2.74403289
Ti    5.96615020   1.92941804  10.47252154  -0.43783340  -1.52070480   2.99300696
Ti    5.83698619   5.74185153   2.09052203  -0.50255772   0.47641028   0.93680885
Ti    5.78650992   5.62637184   6.17870442   0.76332803   1.86953508   3.99612979
Ti    5.88362290   5.97457852  10.59575525   0.58744722   0.32110646  -2.75295091
Ti    5.79204686   9.60472618   2.23429054  -0.09730123   1.61322821  -0.49451201
Ti    5.85889982   9.62222665   6.29817280   0.34770556   0.66545558   0.75198788
Ti    5.92472266   9.80014614  10.37944792  -3.27147163  -0.26480423   2.72969940
Ti    9.72880978   1.72394262   2.24420260  -2.51866899   2.39965720  -1.76745602
Ti    9.77196980   2.00427791   6.38986247  -0.33329679  -0.23121330  -0.42000621
Ti    9.72278119   1.89461610  10.41599162  -0.69384802   0.08780314  -0.86424695
Ti    9.73726151   5.85570409   2.03270791  -0.56459865  -3.46427632   1.49340608
Ti    9.69981401   5.83998293   6.38000028  -0.64802248   1.88905377  -0.29441881
Ti    9.79000874   5.86616925  10.54891297  -1.03106804   0.77674049  -1.88282798
Ti    9.65601016   9.61945232   2.21124967   0.10020158   0.88929624  -1.10515318
Ti    9.74502259   9.68924350   6.25529534   0.29386088  -1.39949228   0.68533295
Ti    9.85771625   9.76834094  10.40957060  -0.94878221  -1.05416900   1.47340031
 O    1.92974581   1.81791839   0.39112116  -0.98007943   0.63909560  -0.95977698
 O    1.90038716   1.75642677   4.45520291   0.55403341   1.03086435   0.91338465
 O    1.96923014   2.00244007   8.62240748  -0.28568233  -0.02888838  -1.16060080
 O    2.07142352   5.96302469   0.19351583  -1.12800175  -0.72815630   0.92803253
 O    1.87671763   5.79466900   4.57620485   0.47932392  -0.17774943  -2.54107033
 O    1.98704668   5.59585430   8.69328806  -0.37081980   0.75664172  -1.85127837
 O    2.04695798   9.71031430   0.33184829  -0.93781844  -0.61026479   0.16010822
 O    1.90853453   9.85536334   4.38328748   0.05214432  -1.20701527   2.49852152
 O    1.76741870   9.77933287   8.73253733   0.78460908  -0.20571678  -1.40178600
 O    5.87176472   1.99202173   0.32787100   0.01076894  -0.65202098   0.69077055
 O    5.98314731   1.84314482   4.39726411  -1.09869713  -0.07288515   3.65532308
 O    5.85538802   1.77176163   8.72606644  -0.11408341   0.05177680  -3.44217609
 O    5.83463329   5.71320695   0.25320014  -0.55974998   0.24189368   1.05725090
 O    5.65939447   5.65015843   4.45020324   0.38626030   0.11455721  -2.52779514
 O    6.00643054   5.83655307   8.65647006  -0.65917666  -0.74323812   2.13635406
 O    5.89713162   9.54302385   0.30237394  -0.48170619   0.50611784   4.42757357
 O    5.72744144   9.94801633   4.54880018   0.10191522  -1.38955139  -2.73650969
 O    5.92418419   9.85847714   8.60380523   0.13506778  -0.41083136  -0.93818597
 O    9.66402877   1.83853265   0.41007252   1.60875148  -0.41482986   0.81203178
 O    9.83174063   1.87408378   4.50395279  -0.61487878   0.62740121   0.72154527
 O    9.68649259   1.79243443   8.52614206   0.99976196  -0.21585694   2.40553760
 O    9.93598256   5.61487655   0.30227419  -1.06915784   0.75048235  -3.39538081
 O    9.79906919   5.76310963   4.51154580  -0.96198213   1.56060566   1.59696410
 O    9.57669031   6.01053935   8.68988430   0.15228834  -1.49519057   1.01251022
 O    9.55892060   9.70025884   0.30113960   1.61249316   0.25159103   3.39481845
 O    9.63164998   9.45723058   4.44995388   1.59423644  -0.14612011  -0.37762124
 O    9.74929528   9.60396529   8.61158526  -0.48731649   1.00019148  -1.16286795
 O    3.91256662   2.00996702   2.41558772  -2.50778493  -1.09476505   0.28303438
 O    3.93643515   1.85088248   6.52997785  -1.64800142  -0.32571160   0.08691311
 O    3.86323753   1.96414974  10.85836873   0.23058895   0.14292751  -0.79358909
 O    3.85705676   5.68541690   2.25932628  -0.38533041  -1.03326876   0.87180557
 O    3.89464473   5.67608722   6.72713434  -0.93132697   0.31441130  -0.49905073
 O    4.02850284   5.63854608  10.60818584  -2.92528045  -0.36454973   0.69517200
 O    3.83677027   9.73557584   2.47217998   1.08395627  -0.11574392   0.01677775
 O    3.95171148   9.81578536   6.64560608  -4.05201579  -0.89906002   0.24920433
 O    3.94956928   9.68569658  10.71758008  -2.33161187   0.72685889   0.23575645
 O    7.74666791   1.66479220   2.49151784   2.24050986   1.42234528  -0.10346946
 O    7.90077740   1.88487671   6.54956508  -1.76085384  -0.59190623   0.06694275
 O    7.89568529   1.69699541  10.75950996  -1.36022464   0.19196337  -0.19686518
 O    7.80881507   5.69521483   2.35516780  -2.55332708   1.17285755   0.58630479
 O    7.65074895   5.55525789   6.54131126   2.72381014   1.53667666  -1.41046491
 O    7.77599144   5.91034769  10.96331189   1.85495362  -0.28529267  -0.62057321
 O    7.77033745   9.64994645   2.60242070  -1.27306799  -0.28735612  -1.10641074
 O    7.76968191   9.72577792   6.44717786   0.83965375   0.44788500   1.17435422
 O    7.74212599   9.65299001  10.80029279   1.14400017   0.69874541  -1.20929127
 O   11.59773121   1.91777057   2.55734888   2.46016604  -0.22739192  -1.10458639
 O    0.00973939   1.89204078   6.61745334   0.78718618   0.30592279   0.29001293
 O   11.68926042   1.92094289  10.72638248  -0.37366259  -0.11933947   0.13326558
 O   11.62727715   5.85236788   2.32614229   3.30441607   0.48265378   0.86698789
 O   11.66199715   5.96851481   6.67499316   0.16658640  -1.10171704   0.13642276
 O   11.67229843   5.73184290  10.68299384   0.74712149  -0.10944728  -0.17002254
 O   11.69661179   9.44529046   2.34370970  -0.47912908   0.34179858  -0.32963482
 O   11.68516332   9.36914293   6.52971602  -0.32324077   1.12036785  -0.68795876
 O    0.00106525   9.79319278  10.75464744   0.71597482  -1.01704451   1.66522198
 O    1.85135072   3.86770922   2.30719093  -0.00911286   0.29260775   0.40015098
 O    1.89572817   3.86408036   6.58274243  -0.32150941  -0.89856851  -0.37459690
 O    1.93747177   3.86240641  10.93437366  -0.48692682   0.04629048  -0.74050161
 O    2.11604680   7.67315423   2.54505544  -1.70308152   0.24007819  -1.04626942
 O    1.96371662   7.79809237   6.55500113   1.69541219  -1.63411959   0.76656491
 O    1.90703617   7.72183949  10.68866678   0.16456723  -0.19447848  -0.18629550
 O    1.84412812  11.67330514   2.25872782   0.08660757   0.34413215   1.13113235
 O    1.72928056  11.59277957   6.56385341   0.94055938   1.60692714   0.50222119
 O    1.92013518   0.05005486  10.69854144   0.24944345   0.61540129   0.74660784
 O    5.84574228   3.86054515   2.48987207   0.42868512  -0.88064390  -0.39233111
 O    5.88555439   3.72639439   6.64460864  -1.20165737  -0.11767896   0.35184575
 O    6.07564812   3.73334776  10.69443947  -0.62818497   2.83054747  -0.19618327
 O    5.58226363   7.67576467   2.61490117   2.13557916   0.93901401  -1.20430975
 O    5.79624931   7.70608321   6.51590148  -0.15752668  -0.52541514  -0.21909825
 O    5.75914129   7.81898758  10.71275496   0.50150385  -1.03549606  -0.14467215
 O    5.83020842  11.60853584   2.38820800  -0.96902710  -0.51548753  -1.06643461
 O    5.83963175  11.61326507   6.62249041   0.74059902   3.11365713   0.18434275
 O    5.72978264  11.69059490  10.91250479   0.64761953  -1.07930685  -0.11888781
 O    9.72698364   3.91178231   2.50776365  -0.52032735  -2.64061214   0.12162433
 O    9.79474967   3.90939429   6.63189128   0.54451760  -0.75399820   0.40721810
 O    9.62144234   3.83991918  10.58223994   0.38106180  -0.71123242   0.61432528
 O    9.59265729   7.68488365   2.29070824   0.29267417   2.06828659   0.77185639
 O    9.41103870   7.71809357   6.62214131   0.60474748  -1.18847516  -0.67727396
 O    9.72587157   7.84150993  10.77109273   0.65698479  -2.26550601   1.19213271
 O    9.91692520  11.50766524   2.62061152  -0.79254408   0.96245593  -1.07786774
 O    9.84094155  11.58086286   6.41378856  -0.01531208   0.06165127   0.88213614
 O    9.77185274  11.55794251  10.77943382   0.15726100   3.36225482  -0.52918781
