# total energy = -399026.62231181
CRSYTAL
PRIMVEC
 11.70600000   0.00000000   0.00000000
  0.00000000  11.70600000   0.00000000
  0.00000000   0.00000000  12.46800000
PRIMCOORD
135 1
Pb    3.64446410   3.87151367   4.03333566   1.42403098   1.39423204   0.47131254
Pb    4.11250510   3.97637602   8.49483491  -0.29384785   0.31944217  -0.67789450
Pb    3.85791130   3.99009545   0.02059714   0.83934841  -0.35478044  -0.40714914
Pb    3.77375687   7.79777631   4.15543478   0.12278174  -1.18101663  -0.61983181
Pb    3.89837894   7.62678677   8.13847453   0.88350264   0.86215303   0.49999445
Pb    3.87806903   7.88471677   0.11328425  -0.87922928   0.65706044  -0.94996310
Pb    3.87550542  11.67842066   4.11844223   0.27252688   0.02785703   0.66892961
Pb    4.11731626   0.02740375   8.25491318  -1.13778468  -0.42903149  -0.44281393
Pb    3.78432739   0.09851770   0.06697810   0.02903134  -0.55465449  -0.37880520
Pb    7.73999549   3.77172002   4.11379166  -0.23811660  -0.09997712  -1.36449038
Pb    7.79407721   4.02969685   8.33286312  -0.19132160   0.20848378   0.61358216
Pb    7.80636851   3.96371013  12.37022594   0.47445741  -1.17469825   0.13249704
Pb    7.87079834   7.56346901   4.27434210  -0.77221772   0.75389842  -0.70202236
Pb    7.83172371   7.87445061   8.49883714   0.41262546  -1.33401548  -1.30985325
Pb    7.86436004   7.97135288   0.05504622  -0.49314906  -0.82556597  -0.95969559
Pb    7.83040093  11.64453179   4.32423904  -0.99131043   0.11429230  -1.12401942
Pb    8.05000549  11.56189914   8.34447083  -1.20148980   1.00431381  -1.26255415
Pb    7.41362051  11.58144816   0.19685725   2.64072959   0.71964854  -0.21249363
Pb   11.33641817   4.00606244   4.15670652   1.98726083  -0.95303351  -0.27926916
Pb    0.13233633   3.96840424   8.39664941  -0.55938612  -0.31952237  -0.68896742
Pb    0.02647897   3.68420597  12.39925145  -1.29087518  -0.09426594   0.23039477
Pb    0.07555052   7.88945770   4.19725246   0.80018932  -0.21586764  -0.82783440
Pb    0.25081276   7.74847064   8.32962144  -0.94602199   1.91404090  -0.19080605
Pb   11.65510231   7.92875474  12.46199042   1.41239668   0.11302633   0.01960246
Pb   11.60456751   0.14149042   4.38705282   1.72728480  -0.18465379  -0.00099674
Pb    0.15579515   0.19395671   8.36524252   0.00903363  -1.67408549  -0.32863047
Pb   11.53041000  11.65370930   0.08271271   0.04017874   0.70555103  -0.76167181
Ti    1.87284294   1.98174386   2.16188886  -1.04606785  -1.59728533   1.51066675
Ti    1.97840765   2.02664807   6.30810979   0.53453075  -1.56619177  -1.23458256
Ti    2.05732950   2.01591367  10.42927004  -0.84967665  -0.49654025   0.63036054
Ti    1.83468138   5.80379968   1.92801412   3.32369942   1.98616099   5.72779033
Ti    1.86267043   5.81534180   6.34279577   2.48864155  -0.22277604  -2.99950843
Ti    1.92422057   5.84163347  10.48495213   1.99584765   2.08701455   1.07344370
Ti    1.91408318   9.80558943   2.20401823  -0.78999284  -1.61334193  -1.56089876
Ti    1.94135816   9.79059404   6.29728757   0.23235387   0.44944165  -0.33039480
Ti    2.01885188   9.95920727  10.50940188   0.30127180  -3.36194770  -0.89849949
Ti    5.76730037   1.90250594   2.13960854   1.72511375   0.37452038   3.27456725
Ti    5.89093915   1.86085600   6.32708609   0.03686202  -1.82019885  -0.98303867
Ti    5.97686119   1.89727336  10.47997740   0.20363758   0.94087219  -0.37710388
Ti    5.83794608   5.74757576   2.06993736  -2.23657066   0.63251440   2.56307590
Ti    5.81610269   5.64106287   6.21507358  -1.20745303   1.62224953   0.40076774
Ti    5.89433389   5.95672687  10.60438310   0.08031738  -0.97847890  -2.32163685
Ti    5.78640457   9.60518271   2.23476432   0.65260377   0.42362964   2.09191230
Ti    5.89195757   9.64303991   6.31074054  -1.66399212   0.43583105  -1.08166963
Ti    5.90241103   9.78715248  10.40189032  -1.48266651  -0.38720298   0.24879427
Ti    9.75771189   1.67290446   2.25972526  -1.75509600   3.01798813  -1.58747264
Ti    9.77644149   2.00654887   6.41558395  -0.53629509  -0.73061835  -1.67515097
Ti    9.73410089   1.91751304  10.38528294   0.40209672  -0.35958654   1.97448658
Ti    9.73580996   5.82599426   2.01118814   0.46834524  -2.13553952   0.65968976
Ti    9.70975241   5.84630417   6.35947795  -0.12415081   1.40870761   2.05268447
Ti    9.83807358   5.89037726  10.54769111  -3.23150141  -0.40026938  -1.88197352
Ti    9.67422470   9.62424008   2.18736098   0.32216887   1.87941867   0.62061659
Ti    9.73844381   9.67173132   6.21868930   2.23009188  -0.79951337   1.49204384
Ti    9.86788876   9.75746606  10.40172823  -1.31547850   1.34558678   1.89459310
 O    1.91528890   1.80984125   0.38041115  -0.37497865   0.58172101  -1.09627123
 O    1.91744280   1.73868047   4.46856860  -0.37655395   1.32682639   0.38114810
 O    1.99718407   1.91298281   8.60664793  -0.29997147   0.61823359   0.16532629
 O    1.97056463   5.97297479   0.20110884  -0.09690099  -0.80206822  -3.16826028
 O    1.98531419   5.82083191   4.51259311  -0.60484068  -0.18250565   1.85615006
 O    2.00303707   5.62360922   8.66967367  -0.98428746   0.59357872  -0.41003051
 O    2.08208769   9.70442618   0.29564122  -0.50968111  -0.37838130   0.25676242
 O    1.86275237   9.78064394   4.44136343   0.42761658  -0.94689843  -0.06760614
 O    1.71179179   9.78470593   8.70625478   1.23742955   0.07034430   0.36845405
 O    5.88293224   1.96221825   0.38001217   0.12157878  -0.03160338  -1.67284244
 O    5.86584148   1.85975563   4.52407614   0.48772430  -0.49316051  -0.76694763
 O    5.86977470   1.82061077   8.66977342  -0.24352417   0.07925190   0.64094655
 O    5.75025644   5.75138021   0.25253934   0.26694172   0.13325318  -0.50178743
 O    5.72575578   5.63375833   4.43564062   0.22369831   0.31377109   1.79757755
 O    5.93281151   5.84646805   8.68886192   0.39862534  -1.04398273   0.90395862
 O    5.83486741   9.55855771   0.40706773  -0.06280005   0.11456726  -0.08418975
 O    5.73325933   9.83853011   4.49525012   0.94437222  -0.45043265   0.98578829
 O    5.95052269   9.84231115   8.58501595  -0.17130097  -0.70836366   1.27378747
 O    9.67929340   1.83084181   0.44642921   1.45112614  -0.13895291   0.01647477
 O    9.82442438   1.96344738   4.50620950  -0.25068463  -0.25695146   1.49665517
 O    9.63037402   1.76437514   8.59961598   1.35370960   0.63918795  -1.11535813
 O    9.99304931   5.64233882   0.23050838  -1.72954178   0.99547495   1.12703827
 O    9.77418223   5.82762139   4.57630459  -0.08593118   0.09145332  -2.57047694
 O    9.54575135   5.90618036   8.71293763   0.22226049  -0.39228977  -0.36860298
 O    9.57596453   9.68708959   0.35390418   1.24839364   0.62884825   0.51456741
 O    9.59326600   9.50019160   4.43577776   1.53246317   0.11830216  -0.86130523
 O    9.76410337   9.59042144   8.61569970  -0.16497113   0.48424718  -0.44660611
 O    3.87891187   1.99504187   2.45620847  -0.66658671  -1.35128650  -0.44475012
 O    3.82104911   1.83923501   6.46867270   0.85278142  -0.39619078   1.09267954
 O    3.89029010   1.96008776  10.86963980   1.01397756   0.19502212  -0.65530183
 O    3.80944846   5.65659673   2.31367429   0.56439844   0.15246611  -0.20954925
 O    3.85381420   5.65720544   6.75320492   1.25796001   0.26829362  -0.48766128
 O    3.97683256   5.61705386  10.61584120  -1.23727489   0.20717198   0.90972135
 O    3.85032581   9.73050715   2.51098039   1.16977186  -0.40738973  -0.22054771
 O    3.90576543   9.82949308   6.58336583  -0.59343551  -0.82092600   0.78432176
 O    3.93210393   9.73112756  10.69384100  -0.74407428   0.35725510   0.02090280
 O    7.83324549   1.76506580   2.51765077  -1.01925911   0.65091963   0.61183501
 O    7.90951008   1.74442812   6.61499714  -1.48137190   0.86616861  -0.49848789
 O    7.90554175   1.66590427  10.74547099  -2.89135694   1.11091865   0.24095214
 O    7.70780399   5.71223535   2.46421292   2.93686305   1.01900707  -0.87140433
 O    7.70689093   5.73050842   6.53449127   0.30241748  -1.14885760  -0.25841219
 O    7.82234720   5.92526114  11.00343391  -0.22720407  -0.41285459  -0.59856812
 O    7.74442036   9.73161922   2.55697484  -0.47066523  -0.34837613  -0.81719683
 O    7.83106817   9.67170791   6.49591528  -2.35294808   0.44717321   0.89846512
 O    7.78492312   9.69254459  10.80372149  -0.50287009   0.49388229  -0.88061554
 O   11.65893017   1.87228105   2.51391037   1.08449944   0.56322985  -0.36221586
 O   11.66425640   1.78315157   6.62908598   1.05877336   0.94891481   0.38413258
 O    0.03951946   1.91242093  10.65926724  -0.97875386   0.74586725   0.47472091
 O    0.03763479   5.90718707   2.27594612  -4.45871729  -0.42553146   1.19458140
 O   11.70491134   5.93395870   6.66418340  -1.43433058  -0.51495121   0.52695213
 O   11.66545042   5.75203575  10.60629071   1.80753917  -0.37573480   0.15324517
 O    0.00881462   9.54242684   2.30729068  -1.64502551  -0.49146492   0.14776313
 O    0.02927671   9.42997901   6.49439418  -2.14541521  -0.01410323  -0.14424018
 O   11.69969047   9.74556106  10.82160060   0.60888491  -0.30293876   0.69342409
 O    1.89481510   3.85383761   2.34738776  -0.94017906   0.08775280  -0.39018746
 O    1.86940138   3.88588864   6.61315188  -0.93296132  -1.30281309  -0.19292554
 O    1.92684272   3.87638337  10.97556793  -0.25881318  -0.44505372  -1.22124120
 O    2.01480160   7.70474873   2.47422473   0.13475974   0.43427294  -0.37478962
 O    2.00042663   7.75928698   6.58425106   1.01955126  -0.81024833   1.04472169
 O    1.90725858   7.70056969  10.69515014   0.20291008   0.27375275  -0.36428380
 O    1.82816114  11.61943413   2.29969766   0.96213588   1.70549984   0.82741050
 O    1.80476084  11.61270318   6.49383312  -0.04782038   1.29132772   1.47414270
 O    1.94446025   0.08425979  10.74656818   0.22599538  -1.06151725   0.25828044
 O    5.80424451   3.90793104   2.51222719   0.69908371  -3.57787262  -0.69824164
 O    5.78964713   3.66595631   6.59375167   0.63165515   4.74251186   1.32220360
 O    6.07228850   3.78973556  10.66565086  -0.14334656   0.21253373   0.35636720
 O    5.70742418   7.61879157   2.62087334   0.49688395   2.57233866  -1.27027026
 O    5.67723441   7.68742385   6.50431871   0.99908955   0.96093865  -0.13489150
 O    5.82961141   7.79802214  10.67850536  -0.06879191   1.12087455   0.40997322
 O    5.83269009  11.62823704   2.35585354  -0.79428911   0.65595487  -0.33922794
 O    5.82096068  11.69641279   6.70111362   0.96285765  -1.91665876  -0.85700323
 O    5.79427100   0.00032777  10.93072054  -0.28497461  -1.97736222  -0.46910139
 O    9.71988980   3.90281552   2.51534419  -0.03100190   1.04107272  -0.63866667
 O    9.92998909   3.88519799   6.59443741  -1.00705770  -0.47668001   0.87303119
 O    9.62941413   3.86601185  10.61240003   0.20910244  -1.06343625   0.60865004
 O    9.59393324   7.76110141   2.30049562   0.28435595  -3.28852727   0.42481541
 O    9.46619737   7.68274145   6.49253645   1.00910273   0.60495525   1.19248482
 O    9.69290747   7.81876517  10.76330023   0.90741282  -0.32931787   0.79043965
 O    9.91417429  11.53330138   2.63486244  -1.15283881   0.22034722  -0.73707994
 O    9.82268019  11.53463587   6.49147667  -0.10202788   0.53957171   0.26605956
 O    9.82157983  11.67722665  10.79116621   0.41135949  -1.72666614  -0.92989665
