# total energy = -399026.45088007
CRSYTAL
PRIMVEC
 11.70600000   0.00000000   0.00000000
  0.00000000  11.70600000   0.00000000
  0.00000000   0.00000000  12.46800000
PRIMCOORD
135 1
Pb    3.65492926   3.87959081   4.05423203   1.39697380   0.55503003   0.61985327
Pb    4.09314337   3.97553319   8.48870065  -0.66182237   0.00286173  -0.62861043
Pb    3.85459850   4.00641362   0.00522409   0.55914845  -0.86806532  -0.61811595
Pb    3.77951622   7.79207549   4.15270429   0.33822204  -0.95389957  -0.04695618
Pb    3.89778194   7.64673379   8.15241376   0.39422199   0.41183772   0.72950293
Pb    3.86157528   7.89752314   0.10575358  -0.84270660   0.31208285  -1.10249785
Pb    3.87215750  11.66602401   4.13549845  -0.55516231   0.74466260   0.58355031
Pb    4.11881463   0.01184647   8.24076200  -1.70411366   0.17034126  -0.23155317
Pb    3.75574133   0.07628800   0.05639276   0.25171315   0.10382037   0.24648796
Pb    7.73264413   3.79567050   4.11645982  -0.22037963   0.31157577  -1.30662868
Pb    7.81270146   4.03131228   8.33142930  -0.43575014  -0.26192101   0.61615375
Pb    7.81278340   3.96488073  12.37384166   0.11407233  -1.19862375  -0.10583990
Pb    7.87865306   7.56819824   4.27961606  -0.66241323   0.34491117  -1.42140653
Pb    7.84620403   7.86928826   8.48846376   0.04156783  -0.47183262  -1.07110702
Pb    7.87247230   7.96230414   0.04951043  -0.46523610  -0.73088309  -0.61153265
Pb    7.83357326  11.62465501   4.32549830  -0.58005803   0.02716659  -1.35654801
Pb    8.03748007  11.56431058   8.33472085  -1.19297084   0.76305881  -0.83979637
Pb    7.43608432  11.57735106   0.18645894   1.94339218   0.59456070  -0.05590294
Pb   11.34481137   4.01363622   4.15501087   1.87093618  -0.51447195  -0.11730446
Pb    0.13253533   3.97954835   8.39034060  -0.18277148  -0.19916580  -0.09197220
Pb    0.00365227   3.71629211  12.38849156  -0.59475912  -0.59843660   0.08057819
Pb    0.05988790   7.88194245   4.21069296   0.14803388  -0.40028498  -1.36241698
Pb    0.25203018   7.76162818   8.33509489  -0.19071289   1.21395098  -0.23639474
Pb   11.65203534   7.92401381  12.45748948   1.60742777  -0.77358856   0.86998784
Pb   11.59637331   0.14001547   4.39858572   2.03836279   0.03922642  -0.42175456
Pb    0.15427337   0.16546431   8.36981827   0.20661776  -0.89278908  -0.22967033
Pb   11.51761534  11.63176055   0.04917379   1.05170546   1.27840383  -0.05549286
Ti    1.90508126   1.97853641   2.17146428  -1.37814106  -2.20753996  -0.88296483
Ti    1.95513612   2.04300136   6.30431952   0.13675011  -2.73657631  -0.23922560
Ti    2.09631048   2.00959243  10.45110151  -1.72199837  -0.21653460  -0.39792151
Ti    1.87455202   5.79658879   1.94353678  -0.23456482   1.84832014   1.76730100
Ti    1.87336971   5.79911728   6.33908030   2.36101509  -0.25426181  -1.21803412
Ti    1.92781432   5.84404491  10.51320462   2.16098945   1.73972434  -1.42197976
Ti    1.93935643   9.76450137   2.18903170  -1.68750769   0.40739300  -1.81615324
Ti    1.94378130   9.81509470   6.28788670  -0.07655237   1.02953036   1.76225219
Ti    2.04447631   9.95117695  10.48552566  -1.73196371  -3.10663454  -0.28974902
Ti    5.77445274   1.87551191   2.16939460   0.78585563   0.74109977   0.44904902
Ti    5.89364323   1.86196807   6.33505314  -0.37712657   0.57490780   3.08943771
Ti    5.98770094   1.87751363  10.48543838  -1.12865468   1.68306738  -1.61737548
Ti    5.81201729   5.76096743   2.08446258  -0.24011190   0.14012333   2.09218448
Ti    5.82913147   5.67841672   6.25998331  -1.46095484   1.43358541  -0.63679436
Ti    5.90584088   5.92739163  10.58113028  -0.39090168  -1.02604690  -0.22121302
Ti    5.79128597   9.61276820   2.26484960   1.87957869   0.03056186   2.95083563
Ti    5.90231738   9.66789175   6.30981791  -1.81817277  -0.57334245  -1.01827305
Ti    5.85955536   9.76939448  10.42862171   0.24930559  -0.36032218  -1.01512912
Ti    9.76105981   1.66823377   2.25300500  -0.24226812   3.94131595  -0.44620493
Ti    9.77384276   1.99849514   6.41921214  -0.17134220  -0.91055914  -0.38119649
Ti    9.74970499   1.93497839  10.38206620   0.88666436  -0.43399959   2.56332923
Ti    9.74018801   5.76879874   2.00189948   0.74674386   0.80016428   0.54020988
Ti    9.71807537   5.87033659   6.36335550   0.66904945  -0.53237430   0.27938241
Ti    9.84316569   5.90776067  10.52165792  -1.54278090  -1.41874763  -0.18924455
Ti    9.69597445   9.65034446   2.17630187   0.26047030  -0.76132148   3.47227010
Ti    9.76107151   9.64429246   6.20375263   1.77363738   0.49132678   1.30583057
Ti    9.85947215   9.76329565  10.41873458  -1.08670763   1.27722651   0.33221638
 O    1.88577807   1.82742366   0.33041447   0.33338488   0.51407951   0.58527441
 O    1.91909335   1.77701762   4.49334252  -0.85521620   1.11353028  -1.10436305
 O    2.01173463   1.85209991   8.59896764  -0.14956836   0.78770760   1.66864850
 O    1.86754012   5.94594564   0.12074011   0.51115605  -1.05828435   2.79136366
 O    2.06545346   5.83871868   4.51069798  -1.16221496  -0.05633066   1.05633538
 O    1.97891101   5.67511562   8.62669648  -0.77943107   0.30397389   0.72720120
 O    2.09375857   9.68296908   0.27726338  -0.08553000   0.00346582   1.42621282
 O    1.83680017   9.66894529   4.49306822   0.66128441  -0.42311267  -2.32056725
 O    1.70940377   9.79148370   8.68898660   1.01522172  -0.02175620   0.20867256
 O    5.89822028   1.93061205   0.37517459   0.08904873   0.15343985  -0.21518090
 O    5.76932551   1.85574047   4.60917024   0.96961483  -0.54624200  -4.40900370
 O    5.87224466   1.86988132   8.63069870  -0.47889655  -0.07380969   2.14684836
 O    5.68010238   5.79368570   0.24528296   0.84619888   0.01240818   1.23896576
 O    5.79672926   5.63180342   4.47573770  -0.40995048   0.55182436   0.91899882
 O    5.87755919   5.81473309   8.75539117   0.91166591  -0.37120910  -1.33710236
 O    5.77109312   9.57889103   0.49958029   0.05428908  -0.11369312  -4.31786489
 O    5.77568187   9.71634289   4.47611174   0.80878475   0.88340137   2.18117589
 O    5.96733250   9.79794541   8.61197177  -0.72202010  -0.58422496   1.05427176
 O    9.75333385   1.81674779   0.47877120   0.41805945  -0.01475841  -1.44470162
 O    9.80688880   2.03748783   4.56354983   0.18829211  -1.19821808  -0.19003825
 O    9.63113491   1.76285336   8.63044934   0.72108089   0.95286335  -2.07194513
 O    9.97660238   5.70721348   0.19205707  -1.50688361   0.21205019   1.66178740
 O    9.74540888   5.89352617   4.55003452   0.51132361  -1.28950681  -1.32032442
 O    9.52545314   5.78875747   8.72006933   0.24605142   0.60380730  -1.39932844
 O    9.64349645   9.70041102   0.41786502   0.20084579   0.63849640  -3.60749013
 O    9.62013127   9.54662930   4.39363592   0.78463422   0.40352592   0.61136509
 O    9.77081090   9.59824105   8.60518918   0.07794575  -0.04618893   1.43929565
 O    3.82055746   1.92578918   2.47998494   1.79262004  -0.70935618  -0.23569364
 O    3.75184324   1.81265069   6.45509504   3.69996941   0.03412469   1.50006220
 O    3.95309279   1.96405609  10.85243396   0.10390415   0.07759741  -0.40393600
 O    3.78749971   5.63642729   2.35847182   1.34249070   1.46253342  -0.77194384
 O    3.85991303   5.65102468   6.75693286   1.11422257   0.34194802  -0.46852554
 O    3.87877139   5.60496157  10.65994051   1.75972558   0.69936879   0.47794411
 O    3.90038067   9.70950658   2.54065423  -1.78984209  -0.34029007   0.02420344
 O    3.83098750   9.80850422   6.55606091   1.76079266  -0.41460685   0.80935797
 O    3.88561940   9.78764413  10.67349323   1.32208820  -0.58629740   0.17384676
 O    7.88019826   1.88729985   2.56597674  -2.11550162  -0.64269419   0.49540992
 O    7.85761738   1.64690543   6.65501942  -0.19599100   2.17284645  -1.27944887
 O    7.81190545   1.68050165  10.74153110   0.84186440   1.05109696   0.54256012
 O    7.70751134   5.76682043   2.53267471   1.27723533  -0.52808832  -1.73876749
 O    7.77566368   5.85532949   6.51727296  -1.56902151  -2.01701667   0.92348322
 O    7.86005223   5.92248682  11.01520370  -1.62797578  -0.33388315  -0.80963136
 O    7.70347277   9.79656410   2.48022184   1.25868038  -0.00392882   0.01359432
 O    7.80552568   9.63815851   6.57854071  -1.45828271   0.13909593  -0.04944310
 O    7.81342723   9.74971669  10.77139196   0.03287241  -0.22091759   0.03564154
 O    0.04817019   1.84981724   2.45887662  -2.72859521   0.53233461   0.88356893
 O   11.65539496   1.71757456   6.65434615   0.05651585   0.99085072  -0.17978188
 O    0.05106157   1.93271913  10.61420789  -1.48961182   0.60012542   0.50376141
 O    0.00345327   5.94121642   2.27709318  -1.63936097  -1.29113390   1.11130792
 O   11.69386088   5.88005257   6.67368402  -0.66080819   0.43563990   0.17906755
 O    0.00959892   5.75623820  10.53870168  -1.71810483  -0.37046390   0.30385042
 O   11.67300079   9.61725160   2.27905066   0.04040374  -0.56227915   0.66820283
 O   11.70065036   9.48987861   6.45358642  -1.20499539  -0.59835282   0.25447787
 O    0.00819420   9.68818996  10.91327780  -0.64031309   0.71244279  -0.84977935
 O    1.89948580   3.85244460   2.37194972  -0.89455285   1.50051637  -0.43470951
 O    1.80803852   3.86007691   6.63242741  -0.41353536   0.51231574  -0.42503960
 O    1.90645087   3.86851694  10.96373580   0.22596640  -1.21490783  -1.30955215
 O    1.92135260   7.74916129   2.38940492   1.37882893  -0.40790891   0.16834378
 O    2.07504068   7.69238719   6.65287493  -0.82964583   1.19912642   0.16828645
 O    1.91699797   7.69664818  10.68606097   0.38805318   1.64840033  -0.36843997
 O    1.85291933  11.62515836   2.37485477   1.34955904  -0.73373159   0.54327886
 O    1.87520755  11.67537710   6.48464420  -0.92406968  -1.81204805   0.94175596
 O    1.97598451   0.07700207  10.80312302  -0.20869020  -1.31535498  -0.36499178
 O    5.79353352   3.82369466   2.50505809   0.60331785  -0.20753933  -0.48704080
 O    5.72299316   3.77414317   6.59628268   1.77715611   0.86379257   1.04248531
 O    6.06227987   3.85999497  10.65304571   0.10171707  -0.94618304   0.75064181
 O    5.84829419   7.65856856   2.57303363  -1.25948290   0.12842067  -0.86560485
 O    5.60368561   7.70580227   6.48857162   1.43064431   1.08277000   0.27050620
 O    5.89420512   7.81511290  10.66340662  -0.62133484   0.51306534   0.95410681
 O    5.80204378  11.67068300   2.31312570  -0.23489553   0.45895705   1.08034921
 O    5.84138765   0.00239973   6.74025067   0.30822900  -3.17993274  -1.64802994
 O    5.84386932  11.64443815  10.92892514  -1.09971549  -0.54130783  -0.54204862
 O    9.71139125   3.92093641   2.49906098   0.32545229   0.20673681  -0.43906604
 O   10.01719879   3.84439087   6.59397610  -2.15283198   0.49589937   0.73855993
 O    9.64522894   3.84736420  10.66724676  -0.18242754  -0.75336685   0.50686125
 O    9.60539342   7.72501181   2.32808730  -0.21103602  -0.99291434   0.07398166
 O    9.56117986   7.67811758   6.41656892   0.95316319   2.47084994   2.13959482
 O    9.69917018   7.78267557  10.78871002   0.80732963   1.47040428  -0.00042772
 O    9.86356925  11.56887592   2.61819272  -1.00905731  -0.03729949   0.00821920
 O    9.80009932  11.51006497   6.57583516  -0.31523561   0.24349394  -0.67095873
 O    9.88253297   0.02517961  10.76549460  -0.35091683  -3.22979474  -0.57041899
