# total energy = -399026.52435082
CRSYTAL
PRIMVEC
 11.70600000   0.00000000   0.00000000
  0.00000000  11.70600000   0.00000000
  0.00000000   0.00000000  12.46800000
PRIMCOORD
135 1
Pb    3.67062701   3.88977503   4.07759706   1.70678885  -0.39677985  -0.00850846
Pb    4.07100733   3.97480742   8.48028475  -0.49324733  -0.23736446  -0.53695593
Pb    3.85332255   4.02014476  12.45553200   0.74142530  -1.53454878  -0.18907791
Pb    3.78652811   7.78309699   4.14974938   0.39268404  -0.03466750   0.52348382
Pb    3.89887060   7.66884643   8.16922062   0.92307380   0.54049156   0.90094630
Pb    3.84209650   7.91200346   0.09427055   0.52077929   0.50294046  -1.07008696
Pb    3.86727610  11.65579297   4.15469917  -0.25602062   1.07705260  -0.39370340
Pb    4.11479947  11.70224237   8.22550117  -1.33357831  -0.06175866   0.24142354
Pb    3.72750646   0.05363689   0.04616900   1.44546479   0.31982719   0.36652500
Pb    7.72426263   3.82129493   4.11476417  -0.23459565   0.44644850  -0.98820738
Pb    7.83036581   4.03214341   8.33199036  -0.59961916  -0.62230685   0.31766449
Pb    7.81968994   3.96193082  12.37740751  -0.43993285  -1.25093650   0.31205340
Pb    7.88461142   7.57415659   4.28032674  -0.06563866  -0.26285311  -1.73780134
Pb    7.86128136   7.86240514   8.47406322  -0.23434770   0.52846584  -0.82618848
Pb    7.87925007   7.95059814   0.04160572  -0.48678219  -0.22060008  -0.52487511
Pb    7.83476727  11.60450898   4.32219428  -0.45778547   0.41992672  -1.30243725
Pb    8.02065855  11.56920368   8.32191622  -0.85727443  -0.04141274  -0.21630223
Pb    7.46577074  11.57510351   0.17525021   0.72234669   0.11629913  -0.59696514
Pb   11.35981846   4.01960628   4.15266689   1.39442321  -0.07675522  -0.40192717
Pb    0.13179785   3.99020081   8.38354554  -0.68126456  -0.23459106   0.53134944
Pb   11.68395760   3.74739496  12.37781896  -0.06492694  -0.34464085   0.15200895
Pb    0.04428380   7.87280006   4.21985694  -0.61817889  -0.71183624  -1.68022115
Pb    0.25241648   7.77932765   8.34006962  -0.24040418   0.35579874   0.03748222
Pb   11.65401365   7.91674439  12.45566915   0.45830892  -0.96129529   1.10365244
Pb   11.59467594   0.13857563   4.40883442   1.31235537   0.01308181  -1.35317119
Pb    0.15304424   0.13290992   8.37400752  -0.64053140  -0.43681507   0.50593426
Pb   11.50778230  11.61319483   0.01415118   1.11726230   0.76633079   0.12719987
Ti    1.91860169   1.94449537   2.17069127  -1.10944260  -1.30673970  -1.59116471
Ti    1.93590316   2.02181350   6.29601583   1.09300883  -1.75963039   0.22714788
Ti    2.11279253   1.99831955  10.46997806  -1.09732964  -1.02960634   0.34261131
Ti    1.91415341   5.81542374   1.98985540  -3.13409798   0.87937439  -0.23785577
Ti    1.91834416   5.78014186   6.31940580   1.05790053   0.67156684   2.35075945
Ti    1.96101253   5.87275973  10.52367774   0.34438372   1.33774300  -1.96910932
Ti    1.94184981   9.72677293   2.14914656  -1.36830550   1.50658520   0.11349818
Ti    1.94670780   9.85126624   6.29865905   0.58403944  -1.58255983   0.10952634
Ti    2.04744964   9.89683770  10.45764721  -2.10782064  -2.44331478   0.83615710
Ti    5.79491483   1.85878403   2.20804540   0.85946468   1.06326825  -1.97804481
Ti    5.89043579   1.86690800   6.37493827  -0.85940499   0.56789036  -1.44781575
Ti    5.98157870   1.88000701  10.47196048  -2.08898081   0.56550266   0.98141622
Ti    5.78237770   5.77733242   2.12872398   2.50775041  -0.17386554   0.25297631
Ti    5.82262293   5.74083311   6.29969389  -0.22638106   2.42197246   0.39239935
Ti    5.91323908   5.88405602  10.55382536   0.10794678   0.56893268   1.52982849
Ti    5.82112456   9.62208617   2.32920942   0.98424931   0.38982798  -2.70833518
Ti    5.88721664   9.68522834   6.29840969  -0.78366913  -1.37910064   2.10091469
Ti    5.81864289   9.74540888  10.44480517   1.55390289  -0.46342410   0.46033846
Ti    9.75795772   1.72003282   2.23779404  -0.64918679   3.20453958  -0.42508322
Ti    9.76795464   1.97728387   6.41861368  -0.17908633  -0.49597941   1.68516185
Ti    9.77829104   1.94461243  10.41161536   0.47453147  -1.55799871  -0.55647534
Ti    9.75354455   5.72190451   2.00171246  -0.50481847   3.49276654   1.41840578
Ti    9.73472131   5.89031873   6.37157191   0.28026491  -0.59529375  -1.95824531
Ti    9.82348790   5.90767873  10.49106145  -0.73449639  -0.34152307   0.78508338
Ti    9.72205541   9.66778640   2.20566401   0.02355553  -2.35280277  -0.33531966
Ti    9.80723998   9.62391231   6.20824111  -1.41337784   2.21387104   1.22487848
Ti    9.83341459   9.78735148  10.44429398  -1.50279244   0.03882301   0.68613637
 O    1.86834784   1.86804348   0.30314695   0.58695978   0.30526684   1.80279257
 O    1.88669114   1.86555010   4.48214626  -0.31584617   0.65468308   0.23920574
 O    2.01936694   1.82330315   8.65310370  -0.13240689   0.56148032   0.11826438
 O    1.78400611   5.87377815   0.13500350   1.00718037  -0.66731491   3.22253454
 O    2.09840585   5.85445154   4.54903708  -1.09456083   0.04687229  -1.46745914
 O    1.92230079   5.74059899   8.61445290   0.24355410  -0.23018301   1.55845788
 O    2.10060658   9.66106715   0.31358267   0.00729165   0.40602299   0.40404855
 O    1.83886042   9.53754544   4.46647398   0.64813988   0.63233517   0.65525705
 O    1.75085471   9.79762935   8.67439904   0.41098205  -0.09488793  -1.30571574
 O    5.91746494   1.90457791   0.35748250  -0.08569989   0.18045925   1.02585031
 O    5.71465849   1.82905079   4.54570812   1.38178680  -0.12051892   1.45419825
 O    5.85398330   1.91655314   8.66579612  -0.57064080  -0.43400494  -1.21681542
 O    5.64405961   5.83662331   0.28783625   0.99996218  -0.39807472   1.82611393
 O    5.85221570   5.65371706   4.54655594  -0.88682675   0.62966279  -2.53220133
 O    5.85816235   5.76564983   8.76910597   0.59342492   0.40811222  -2.10519418
 O    5.70882890   9.59636809   0.44513254   0.29799814   0.03828578   0.52178947
 O    5.85294147   9.62701440   4.52733029   0.07029926   1.47964557  -2.59734868
 O    5.95358966   9.72747529   8.67673056  -0.95538116  -0.15694964  -1.53867215
 O    9.84825780   1.80177581   0.45525655  -0.64831436   0.14658153  -1.12910435
 O    9.79625975   2.06276108   4.61244932   0.40032007  -1.53780431  -2.00188044
 O    9.66459066   1.80229088   8.58784619   0.14140666   0.76860829   1.10944260
 O    9.89459015   5.78344295   0.21208068  -0.68203138  -0.62994748  -1.22006177
 O    9.73660597   5.90877909   4.47441610   0.52725821  -1.41202788   2.80285118
 O    9.51732918   5.69396228   8.67418709   0.67518971   1.37334721  -0.21989296
 O    9.72338990   9.74030507   0.36127277  -0.52971478   0.07057017   0.33203658
 O    9.68295737   9.61047382   4.37063246   0.03232113   0.21490635   0.74350075
 O    9.78016400   9.60544024   8.64396466   0.07835773  -0.26696729  -0.08719679
 O    3.82196218   1.82699054   2.49327583   0.00434836   0.96012900  -0.08504328
 O    3.82141199   1.78792762   6.50449326   0.99345112   0.67403260   0.99339143
 O    4.01662125   1.97208641  10.81739888  -2.08865020   0.03431853  -0.00139129
 O    3.81901226   5.67557216   2.37481736   0.53594116   1.45006570  -0.16717081
 O    3.90492260   5.66008512   6.74063718  -1.64803318   0.38674694  -0.27865322
 O    3.84447281   5.62221621  10.72537258   1.77695955   0.80702722  -0.31760939
 O    3.88942385   9.67229321   2.57177436  -0.94378706  -0.33334522   0.15800114
 O    3.81609747   9.76933595   6.56290584   0.26288525   0.18712184   0.51286776
 O    3.88252902   9.82101794  10.66018987   0.09140740  -1.22137041   0.34527451
 O    7.84682445   1.98428406   2.63437619  -0.22052202  -1.91578566  -0.48401797
 O    7.79041324   1.63967113   6.64197790   0.16337346   2.40807332  -1.29805675
 O    7.75318816   1.73953501  10.76136769   4.04141299   0.27282173   0.58964594
 O    7.75964987   5.80186819   2.53092919  -1.84672157  -1.51548396  -1.30537596
 O    7.79031959   5.90010494   6.53637394  -0.27709203  -1.19914648   1.02470238
 O    7.83462680   5.90489270  10.99049213  -0.90113456  -0.19869298  -1.12555495
 O    7.70869365   9.86111099   2.40121212   0.96687883  -0.18791621   0.68620066
 O    7.72278767   9.60997046   6.66338545   1.80868834  -0.19187886  -0.55806407
 O    7.84364042   9.79911601  10.73796526   0.44361082  -0.82566043   0.57269330
 O    0.04241084   1.84965335   2.43829195  -2.23783524   0.24359083   1.34629738
 O   11.65797028   1.69329631   6.67170161   1.01256187   0.73924882  -0.89260773
 O    0.00044483   1.97755311  10.59068077  -0.75065925  -0.29063761   0.59670800
 O   11.60627659   5.92334135   2.32914708   3.34869668  -1.05735870   1.07733269
 O   11.65579297   5.84260507   6.69062803   1.00392025   1.00758444  -0.39170141
 O    0.00083113   5.74469609  10.48406690  -1.75562181  -0.15478235   0.77572546
 O   11.62923205   9.66963595   2.27911300   1.33768790  -0.45074176   0.95225419
 O   11.62600120   9.52923418   6.42282786   3.19690814  -0.03482362   0.61861511
 O    0.00630953   9.65864401  10.97220157   0.79286635   1.12152342  -1.75054796
 O    1.86761036   3.90534401   2.37928091   0.02551620   0.08901512  -0.01786639
 O    1.72997121   3.84521029   6.63232766   1.01738777   0.00397643  -0.83194650
 O    1.89474487   3.81702224  10.89438878   0.53051834   0.56551644  -1.02197490
 O    1.88142344   7.77381413   2.31047002   1.25935313  -1.79632284   0.83834276
 O    2.11629262   7.66926784   6.72916662  -2.25225325   1.34967689  -1.14324227
 O    1.94330135   7.75397246  10.66167356   0.31584617   0.23567471  -0.02176017
 O    1.93247330  11.61197741   2.47550893   0.22830040  -0.26209547  -0.00415551
 O    1.90937737  11.67563464   6.51580174  -1.05182568  -0.97072210  -0.02275657
 O    1.99799179   0.01806236  10.84577605  -0.91321538   0.19409667  -0.76353443
 O    5.80617600   3.73223569   2.47902491  -0.27686704   4.20144368   0.38453373
 O    5.72998165   3.91882933   6.64697756   1.96713029  -4.59126248   0.75164647
 O    6.05385155   3.89518321  10.67227136  -0.33181617  -0.75987483   0.81462652
 O    5.94166124   7.71105826   2.48831357  -1.82004367  -1.12872324   0.26810144
 O    5.58771863   7.76470686   6.48537982   0.82289162  -0.95640511   0.88576147
 O    5.93418111   7.84530267  10.68847976  -0.87214243  -2.43819961   0.98473603
 O    5.76027677   0.01305219   2.31488369   0.34719385  -3.01195818   1.90080287
 O    5.87555746  11.60134836   6.71234729  -0.51924107   1.15400985  -1.08261776
 O    5.85035444  11.56544606  10.90474969  -0.80781700   2.86055994  -0.23919196
 O    9.71576929   3.93610738   2.46580883   0.35527069  -3.25774386   0.38967646
 O   10.01403817   3.82266454   6.62475959  -2.41435479   0.94649158   0.13505172
 O    9.65400844   3.79959201  10.74514682  -0.37771043   0.81296891   0.12675448
 O    9.60882328   7.65135766   2.36165116  -0.42343480   3.57655628   0.06593712
 O    9.69641927   7.75712137   6.42898705  -0.29263042  -1.44936316   1.83776312
 O    9.74028166   7.79247349  10.81496762   0.33565026  -0.92679769  -0.71197399
 O    9.76855165  11.60763448   2.59992710  -0.30458726   0.52494399   0.39595334
 O    9.76395119  11.50010317   6.63457190  -0.24451836   0.86576453  -1.15424862
 O    9.93124163  11.66253562  10.71266768  -0.75771672   0.38764233  -0.33620127
