# total energy = -399027.50123958
CRSYTAL
PRIMVEC
 11.70600000   0.00000000   0.00000000
  0.00000000  11.70600000   0.00000000
  0.00000000   0.00000000  12.46800000
PRIMCOORD
135 1
Pb    3.69154563   3.89870671   4.10043844   1.31977658  -0.34761263  -0.95134937
Pb    4.04800504   3.97319199   8.47012333   0.61745524  -0.82180706  -0.85187662
Pb    3.85452827   4.02859649  12.43779004   0.70736785  -1.32796122   0.88598612
Pb    3.79464037   7.77404825   4.14829062   0.15926571   0.28618912   0.02977806
Pb    3.90276869   7.69244572   8.18863330   0.53713008   1.08488607   0.81366342
Pb    3.82484185   7.92770120   0.07972039   2.16614667   0.05037858  -0.09016312
Pb    3.86170405  11.64919078   4.17234139   0.44827413   0.82375644  -1.14242450
Pb    4.10633603  11.68684898   8.21141233  -1.00777192  -0.02265465   0.73996978
Pb    3.70457441   0.03233197   0.03740400   2.23017087  -0.04381993   0.45828517
Pb    7.71519048   3.84779732   4.10988918  -0.53760376  -0.07342947  -0.15556281
Pb    7.84578262   4.03083233   8.33351146  -0.46493491  -1.02898731  -0.24964745
Pb    7.82516835   3.95461457  12.38187106  -0.39821893  -1.59702499   0.53565439
Pb    7.88982059   7.57929553   4.27525226  -0.59709612  -0.31360789  -1.78274845
Pb    7.87536368   7.85714914   8.45711921  -0.02430797   0.39681611  -0.70990022
Pb    7.88421341   7.93816637   0.03209263  -0.81498425  -0.32393319  -0.35895361
Pb    7.83434585  11.58632956   4.31451400  -0.43115790   1.02592205  -1.37063794
Pb    8.00126171  11.57417873   8.30847571  -0.65318618   0.00982886  -0.08809077
Pb    7.49761106  11.57354661   0.16229596   0.50371288   0.29739802  -0.73433116
Pb   11.37955478   4.02479204   4.14920078   1.90123671  -0.87189414  -0.20346823
Pb    0.12864894   3.99984655   8.37850847  -1.38381900  -0.35982355   0.50034702
Pb   11.65839170   3.77660143  12.36783209   0.13445673  -0.22705657   0.08475224
Pb    0.02749739   7.86164425   4.22339785   0.26511948  -0.58289939  -1.14295284
Pb    0.25178435   7.79813920   8.34486980  -1.05353667   0.13841014  -0.40238641
Pb   11.65761910   7.90667723  12.45732739  -0.29975275  -0.40926387   0.43979344
Pb   11.59735661   0.13732309   4.41432034   0.34203323   0.33000905  -2.22846289
Pb    0.14987192   0.09943076   8.37961812  -0.85854002  -0.21223131   0.63617470
Pb   11.50189418  11.59771950  12.44848758   0.87317855   0.70387902   0.82753677
Ti    1.91513672   1.89294214   2.15105417  -1.14511172   0.38190886   1.14093059
Ti    1.93106858   1.97661663   6.29040523   0.98240728   0.15759872   0.13267588
Ti    2.11170387   1.97282389  10.49254514  -1.34136089  -1.18225459   0.28754184
Ti    1.91311158   5.84582422   2.03734601  -1.36775943  -0.95998492   1.78898827
Ti    1.97726046   5.77117506   6.32713596  -0.82494064   1.44356186   0.82490420
Ti    1.99929115   5.91838972  10.50710777  -1.01848437  -0.53616906  -0.68310999
Ti    1.92506341   9.70965876   2.11543309  -0.29055699   1.02069336   4.05273119
Ti    1.95670472   9.86243377   6.31151356   0.33855806  -4.55415766  -1.27703154
Ti    2.02011613   9.81072836  10.43899508  -1.78264369   0.18471689  -0.41179168
Ti    5.82698927   1.85749637   2.22153577   0.50397705   1.01191662  -0.85035993
Ti    5.87582670   1.88221945   6.39758016  -0.51169257   1.65969647  -3.26599465
Ti    5.95193911   1.89118624  10.47000300   1.03983639  -0.16839316   1.28701525
Ti    5.78564368   5.79057190   2.17819700   1.80700176  -0.45793447  -0.00888605
Ti    5.81335178   5.83023183   6.33991566   1.39789730  -0.95955223  -1.14432833
Ti    5.92117574   5.84856343  10.54444943  -0.12560257   1.13325606  -0.07474120
Ti    5.86423776   9.63595778   2.36004278  -0.43542557   0.15617313  -3.53166979
Ti    5.86129955   9.68364803   6.31006727   0.48453341  -0.78479172   0.16063210
Ti    5.79969088   9.71594488  10.46580128   1.42205953  -0.04262662   0.84644752
Ti    9.74643901   1.81481630   2.21573815  -0.42649853   0.21227685  -1.19481166
Ti    9.75919855   1.95091025   6.43736555  -0.46860593   1.06976020   0.12834444
Ti    9.81001430   1.93441650  10.43626459  -1.93587454  -0.50667794  -1.08535520
Ti    9.76088422   5.72085097   2.02006536  -0.84365554   2.03908208   0.75356074
Ti    9.75571016   5.89977718   6.35659784   0.26018683  -1.38631037   0.23864351
Ti    9.79260748   5.90064342  10.46997806  -0.61905846  -0.61282775  -0.21289173
Ti    9.74760961   9.65570581   2.23371701  -0.48018375   0.17183189  -1.85286672
Ti    9.83628256   9.63388582   6.23060870  -1.39645349   1.98593430   1.28844995
Ti    9.78812408   9.80952265  10.47805733  -0.32646100  -2.13175934   0.12041486
 O    1.87493831   1.91966694   0.34404199   0.33389413  -0.25223903   0.10414578
 O    1.84202104   1.97822035   4.48002670   0.48608198  -0.40283276   1.22943583
 O    2.02036195   1.81837492   8.71053131  -0.26778392   0.05889570  -1.51825751
 O    1.74426424   5.77606817   0.26482032   0.96287710   0.24164044  -2.58324448
 O    2.08250911   5.87148377   4.53929957  -1.00332206   0.04378805  -0.17469219
 O    1.87724440   5.79590984   8.66620757   1.15124679  -0.44563701   0.97434561
 O    2.10719706   9.65649011   0.35659727  -0.10356735   0.59312449  -2.47863412
 O    1.86783277   9.43477847   4.46087585   0.31856331   1.25039160   1.96071540
 O    1.81107038   9.79990031   8.61594906   0.14794750  -0.08704321   0.09797428
 O    5.93215597   1.88580148   0.38011192  -0.30245364  -0.04468531   0.86091297
 O    5.71739770   1.79794795   4.52401380   0.85923687   0.39737178   2.28108689
 O    5.81360931   1.94289164   8.66584600  -0.04264484  -0.89420719  -0.29268855
 O    5.65136415   5.86158050   0.39205626   0.88452864  -0.72251650  -1.65199462
 O    5.86980982   5.70304614   4.53410041  -0.77163345   0.74650565   0.28478629
 O    5.86400364   5.73450016   8.70425990  -0.05240082   0.91438868   0.25089997
 O    5.66167714   9.61529669   0.39583406   0.76526610   0.26004108   1.48050888
 O    5.93358410   9.60009060   4.49241989  -0.28447203   0.96480370  -0.98327721
 O    5.90002300   9.65069564   8.68621871  -0.69556685   0.07589352  -0.94615256
 O    9.91481812   1.79275049   0.38714387  -1.20156615   0.14509176   0.31725613
 O    9.80253416   2.02245733   4.59132853   0.37529557  -1.24205666   0.33698216
 O    9.70450812   1.87075927   8.57905625  -0.17479239  -0.25639284   0.80752835
 O    9.78437816   5.83367339   0.20243045   0.14640348  -0.65134156   1.21313031
 O    9.74817150   5.86591172   4.50066124  -0.17409553  -0.51304073   1.28238321
 O    9.53756885   5.66060018   8.62131030   0.78943287   1.88107799   1.40397316
 O    9.78078442   9.78227108   0.30919393  -0.63452593  -0.56321435   2.21454855
 O    9.74695408   9.68078006   4.38207809  -0.41202852  -0.39292647   1.03850645
 O    9.79225630   9.60218597   8.67958573  -0.03864589  -0.05501517  -1.14544421
 O    3.82837706   1.76966626   2.50088131  -0.79814585   1.96480089  -0.32694835
 O    3.93012562   1.78966010   6.59553460  -2.73809677   0.53150969   0.22922457
 O    4.00010408   1.98104150  10.78354826  -1.24926661  -0.09507299   0.54465886
 O    3.86795505   5.77362161   2.38421824  -1.42009193   0.50718350   0.63673491
 O    3.88969309   5.68342688   6.71242210  -1.26712981  -0.08835494  -0.05129405
 O    3.87892357   5.67429620  10.77695269  -0.47545606   0.82524124  -0.74710685
 O    3.84009477   9.62185205   2.60665982   0.74697932  -0.20632397  -0.32736737
 O    3.82182170   9.73702739   6.59250487   0.68301434   0.23476298   0.25573242
 O    3.88693048   9.80270975  10.66188552  -0.37704909  -1.18446813   0.40694557
 O    7.79551705   2.00046175   2.68103144  -0.28991934  -1.89127122  -1.24494429
 O    7.73963261   1.73074381   6.57775523   2.13388179   0.89315052  -0.00970588
 O    7.83666364   1.80963054  10.80316043  -0.71563903  -0.46231145   0.00443164
 O    7.75404269   5.77639594   2.47431200   0.85645401  -0.84118239  -0.23279539
 O    7.78656196   5.89291746   6.59550966  -0.17052927   0.01237488   0.01128633
 O    7.77285424   5.87913950  10.92040950   0.64201371  -0.03773952  -0.63104165
 O    7.75364469   9.91268762   2.35072919   0.01064413  -1.19193770   0.57938778
 O    7.70947795   9.57466517   6.72290768   2.21910316  -0.29808121  -0.83325736
 O    7.88209463   9.81319833  10.72860179  -1.52683385  -0.94145220   0.65586884
 O   11.65689333   1.85945128   2.47335197   1.29506780  -0.20705271   0.85614885
 O   11.69869546   1.70124469   6.65376016   0.50971131   0.35156148  -0.58926674
 O   11.63613859   2.01001385  10.59452092   2.62094757  -0.80037305   0.89348301
 O   11.61874348   5.86213068   2.42352984   0.42751876  -0.06416994   0.25734475
 O   11.65734986   5.84594128   6.69264785   1.29620646   0.52604871  -0.35093750
 O   11.63446463   5.72710197  10.46520282   1.46503686   0.16868921   1.41634804
 O   11.63954504   9.70100803   2.31797575   1.19411936  -0.42364278   0.58137815
 O   11.66926657   9.56658803   6.41870095   1.86857102   0.57755227   0.74687457
 O    0.03580865   9.67322969  10.95816260   1.33847327   0.20012970  -1.43234840
 O    1.83746741   3.95626511   2.38642507   0.93416937  -2.46207355   0.58297682
 O    1.69595357   3.83280193   6.59974878   1.94907837  -0.13190160  -0.29548053
 O    1.90439061   3.79192458  10.78499455   0.36103963   2.28421135  -0.01234300
 O    1.89427663   7.73384984   2.26781699   0.27966235   0.33614411   1.04986110
 O    2.06757225   7.69931714   6.75978803  -1.33821365  -0.07599827  -1.04049681
 O    1.98114685   7.81785210  10.63790956  -0.18171540  -1.79503680   0.57791664
 O    2.01861776  11.59001695   2.57212346  -1.32566569   0.87762385  -0.94371584
 O    1.90031692  11.64353678   6.54786943  -0.25970859   1.90424731  -0.40741925
 O    1.98248134  11.67051911  10.85649853  -0.87790623   0.74137715  -0.55916530
 O    5.80781484   3.79468720   2.46729252  -0.77770019   1.18394891   0.63632955
 O    5.81640704   3.89615480   6.72467814   0.51321836  -1.75521126  -0.47927283
 O    6.02984254   3.89381360  10.72559700  -1.03613805  -1.05253921   0.59853993
 O    5.95946607   7.72483622   2.41647295  -0.85326122   0.41358620   1.28120812
 O    5.60911720   7.78196150   6.51856963   0.45869964  -2.33127873   0.86087654
 O    5.93587848   7.78866904  10.75308894  -0.90337108  -0.56066377   0.28568355
 O    5.73282620  11.65895359   2.39343209   0.48318980  -1.06898592   1.17134629
 O    5.88919495  11.53502216   6.64084331  -0.57579875   2.37550857   0.24075685
 O    5.82272828  11.59491006  10.86771973  -0.08697945   1.93370655  -0.50584444
 O    9.73425307   3.84128878   2.44301732  -0.02168907   0.62305741  -0.23433029
 O    9.91028789   3.83614985   6.66021858  -1.42418653  -0.10818573  -0.56780540
 O    9.64806179   3.78669200  10.82667508  -0.07040521   1.90719870  -0.34835503
 O    9.59681292   7.70959501   2.39607530   0.10599496   1.74335105  -0.15058917
 O    9.81699107   7.78622249   6.51914316  -1.33174610  -1.77809363   0.86089475
 O    9.79412926   7.77167193  10.81298521  -0.39112740  -0.92671802  -0.53005221
 O    9.66344347  11.66342528   2.59683504   0.68904465  -0.03627294   0.15914729
 O    9.71911721  11.52508377   6.64448396   0.15372730   0.72348208  -0.88010156
 O    9.94922205  11.61061951  10.64709847  -0.38956517   2.99762773   0.03942473
