# total energy = -399027.15293384
CRSYTAL
PRIMVEC
 11.70600000   0.00000000   0.00000000
  0.00000000  11.70600000   0.00000000
  0.00000000   0.00000000  12.46800000
PRIMCOORD
135 1
Pb    3.71638576   3.90637414   4.12016281  -0.06724777  -0.47448273  -1.41460707
Pb    4.02700447   3.96874371   8.45739350   0.65990156  -1.61941317  -0.86351904
Pb    3.85793471   4.03264676  12.42275363   0.07084921  -0.66398379   0.79746879
Pb    3.80326769   7.76583064   4.14696901   0.15150113  -0.10962375  -0.38916541
Pb    3.90834075   7.71919393   8.21056451  -0.34504436   0.99761393   0.90604638
Pb    3.81443522   7.94332871   0.06485854   2.27749397  -0.74197358   0.64500609
Pb    3.85753671  11.64547998   4.18624321   0.71059336   0.76116942  -1.31186124
Pb    4.09433738  11.67171313   8.19991684  -1.28634395   0.70389797   1.14208578
Pb    3.68886496   0.01106217   0.02998554   1.72543992  -0.19250598  -0.05586916
Pb    7.70446778   3.87396023   4.10439079  -0.57455753  -0.55598493   0.53290718
Pb    7.85940840   4.02625529   8.33423460  -0.42722767  -1.04248287  -0.65847701
Pb    7.82924204   3.94217109  12.38804272  -0.53010259  -1.29072890   0.43080240
Pb    7.89291097   7.58350969   4.26450485  -1.31848096   0.17814026  -1.19591605
Pb    7.88929382   7.85304034   8.43788108   0.32967255  -0.50690465  -0.76173479
Pb    7.88635561   7.92455229   0.02153224  -1.37936276  -0.98986347   0.10801222
Pb    7.83254313  11.57175559   4.30230782  -0.17982301   1.49299306  -1.23883068
Pb    7.97971096  11.57929426   8.29477338  -0.82286143   0.54082680  -0.39466329
Pb    7.53096145  11.57301984   0.14710993   0.35941453   0.85742908  -0.21271681
Pb   11.40567086   4.02682888   4.14529830   2.83270430  -2.26745533   0.56683378
Pb    0.12128587   4.00821634   8.37506730  -0.74531237  -0.49749816   0.03822697
Pb   11.63375057   3.80489483  12.35799484   1.10389888   0.00278233  -0.40866842
Pb    0.01160065   7.84862717   4.22321083   1.00994521  -0.54276775  -0.18182183
Pb    0.24766384   7.81716145   8.34836084  -1.73668053  -0.36881212  -0.79185516
Pb   11.66051048   7.89512341  12.46040699   0.10667225  -0.47725171  -0.39412908
Pb   11.60126642   0.13735820   4.41253741  -0.09353966   1.06668245  -2.14399562
Pb    0.14424133   0.06567066   8.38704905   0.20596354   0.58913248  -0.07514958
Pb   11.49928375  11.58501849  12.41767915   1.43742662   1.41828865   1.01205532
Ti    1.89544723   1.84754627   2.14813666  -0.77975537   2.16982008   3.39357277
Ti    1.94091333   1.93297666   6.28867218   0.81623727   1.36038951   1.23796260
Ti    2.09002436   1.93359708  10.51649617  -2.23813181   0.81759949  -1.52496981
Ti    1.89247390   5.86079620   2.10502231   0.60477584  -3.23048825   0.31566297
Ti    2.02160279   5.78094957   6.34582549  -3.80922595   0.56675365  -1.63167767
Ti    2.02368646   5.95406960  10.48454069  -1.38915211  -3.67822947   2.86008687
Ti    1.90552609   9.70797310   2.13155422   1.60219389   0.70226864   1.89730324
Ti    1.97155964   9.81576194   6.30909476   0.00637932  -1.92986316  -0.00492806
Ti    1.96904285   9.72821277  10.41526848   0.08584263   2.87992376  -1.19266629
Ti    5.86430800   1.87004521   2.22365533  -1.36552235   0.30452475   1.19362341
Ti    5.85476761   1.91957329   6.37815502   0.38284396   1.48165006  -0.62813850
Ti    5.93234327   1.90110122  10.48348091   0.74603355  -0.01771787  -0.73442790
Ti    5.81252065   5.79943334   2.22522630  -0.66147302   0.75401104  -1.54234489
Ti    5.82336041   5.90589941   6.36591144   2.06677599  -4.22228377  -1.05147981
Ti    5.92522602   5.82784381  10.53484907  -1.60512758   0.42130242  -1.19933943
Ti    5.90162672   9.65173747   2.34122857  -1.09653127  -0.17753927  -2.47109507
Ti    5.84196124   9.67269121   6.32485432   1.29133434   1.05878954  -1.95481063
Ti    5.79848516   9.68579023  10.49660971  -0.82039963   0.22312049  -0.56455895
Ti    9.73021450   1.90919007   2.17781050   0.81660231  -4.22142014  -0.88266592
Ti    9.74386369   1.93934473   6.45748890  -0.51288332   1.86240171  -1.92677367
Ti    9.81763490   1.91823881  10.44622652  -1.54672984   1.55999153  -0.42924430
Ti    9.75580381   5.74997549   2.04881657  -0.94950413   0.61032714   0.06727893
Ti    9.78100683   5.88956954   6.34806973   0.73616407  -1.72967351   3.97293816
Ti    9.75541751   5.88285030  10.44670031   1.10263904  -2.03494615  -0.53761711
Ti    9.76626898   9.64888121   2.23739507  -0.75259985   4.34241804  -0.88616052
Ti    9.84643166   9.67056072   6.27179051   0.14965366   0.16589801   1.53158062
Ti    9.73949735   9.80526166  10.51098532   1.42738798  -1.48209524  -2.07072022
 O    1.89561111   1.96019311   0.38577239  -0.04098259  -0.77846437  -1.97493689
 O    1.81807057   2.07278142   4.51886452   1.06162529  -1.36752562  -0.70298536
 O    2.00981485   1.81695850   8.71349869  -0.40653604  -0.20495745  -0.37572565
 O    1.74617231   5.68971301   0.31002929   0.72097924   1.21504957  -1.69200301
 O    2.02478682   5.89063479   4.51956272  -0.53419818   0.08223673   0.80772557
 O    1.87840329   5.83218673   8.74248679   0.99938571  -0.39782402  -3.35222514
 O    2.10681076   9.67639031   0.31818336  -0.70788671   0.41500323   0.31683377
 O    1.91073526   9.38404466   4.52720561   0.06661562   1.04730409  -0.26214877
 O    1.87747852   9.79721964   8.56276057  -0.02514780  -0.30340737   1.70980991
 O    5.93504735   1.86489457   0.43631766  -0.18266321  -0.32654298  -0.28926869
 O    5.75579338   1.78422852   4.58619172  -0.09960291   0.83793052  -1.08087455
 O    5.77312996   1.93112711   8.65830286   0.82303950  -1.00783954   1.94236806
 O    5.69755603   5.85606697   0.43642987   0.86334988  -0.74424396  -1.97465643
 O    5.85662886   5.78268206   4.52494890   0.05019321   0.41397933   1.35319997
 O    5.86790174   5.74117258   8.64625877  -0.56109106   0.80830429   1.73907555
 O    5.64837912   9.64589618   0.40210547   1.22438929   0.58088788  -0.02633196
 O    6.00144379   9.61262773   4.42451916  -0.51624882  -0.18768921   3.43808558
 O    5.81996567   9.57829403   8.66034761   0.37060171   0.38697071   1.26393397
 O    9.93049245   1.78987081   0.33134957  -1.25706940   0.11444051   1.22647715
 O    9.82355814   1.93161877   4.57949640  -0.00097938  -0.18524076   1.56409157
 O    9.73733174   1.92960533   8.60469046  -0.25434490  -0.77954614   0.11010898
 O    9.68116636   5.85775264   0.24049525   0.87839226  -0.01230902   2.47746104
 O    9.75235054   5.80135313   4.57073140  -0.82886681   0.48936485  -2.63725128
 O    9.58952008   5.70497763   8.62239502   0.31918428   1.26400964   0.96045537
 O    9.81191067   9.80094215   0.33861841  -0.28572066  -0.76448150   0.15069537
 O    9.79346201   9.73365606   4.43741107  -0.58381267  -0.94048048   0.95766414
 O    9.80197228   9.59870929   8.67894986  -0.27298872   0.66019538   0.99042439
 O    3.81003376   1.79207154   2.49696636   0.79952994   1.37406966   0.07553688
 O    3.93511237   1.81493336   6.69507911  -2.23152545   0.42845634  -0.72994056
 O    3.93478460   1.98539613  10.77356140   0.94114379  -0.28491045   1.00708720
 O    3.86436131   5.89298770   2.41836809  -1.06335256  -0.48047921   0.69332512
 O    3.83335211   5.70398262   6.68358361   2.40362472  -0.28406907   0.39788189
 O    3.90256969   5.75927006  10.79791140  -0.38043558   0.24859327  -0.59758630
 O    3.81558241   9.56475019   2.62768087   0.57447295   0.39014924  -0.64942220
 O    3.86154016   9.71277256   6.63146737   1.96012599  -0.27807705  -0.37643793
 O    3.88352403   9.73576314  10.68072467   1.03301405  -0.43147906   0.34962963
 O    7.73233977   1.94004709   2.67633101  -0.15369138  -0.37496441  -1.13526129
 O    7.77345124   1.85913521   6.51312112   1.86822457  -0.90350890   1.17938679
 O    7.90184265   1.86014193  10.84691064  -2.59340178  -0.84429204  -0.20888387
 O    7.78276922   5.71715187   2.40783263   2.56977202   0.48889297   0.80691090
 O    7.77451649   5.88453596   6.65528125  -0.30622086   0.71700830  -0.83156011
 O    7.73943361   5.85143140  10.82505424   1.84151421   0.02607821   0.26424108
 O    7.80220118   9.91417429   2.32488302  -0.21305514  -1.63497195   0.22799958
 O    7.78364717   9.52951513   6.74497604   0.23835875   0.26384043  -1.18037507
 O    7.86228808   9.78824114  10.74673026  -1.44917918  -0.48871045   0.45858562
 O   11.61121652   1.86022387   2.54296081   1.95598589  -0.55339848  -0.26824318
 O    0.04627382   1.72498445   6.61377528  -1.98938719   0.14275794   0.55946618
 O   11.66272292   2.01095033  10.63608923   1.77260150  -0.45035883   0.89848290
 O   11.65107545   5.79980794   2.52776232  -2.37512922   1.16194048  -0.80995143
 O    0.00225926   5.86996199   6.68026712  -0.25748336  -0.53430057  -0.04681435
 O   11.61255100   5.71709334  10.50621007   1.50284918   0.50420245   1.56380221
 O   11.69716197   9.71321738   2.38223582  -0.18067329  -0.47966009   0.26740626
 O    0.07311568   9.62507120   6.44694097  -3.16845345   0.37618418   0.79385399
 O    0.10767179   9.69644269  10.88436451  -1.88564862  -0.71492934  -0.44470069
 O    1.84577867   3.91395963   2.41733324   1.13973972  -1.43818341   0.75901923
 O    1.74211033   3.82225483   6.55788124   1.60154839   1.42688493   1.02025540
 O    1.93040134   3.85080576  10.67561279   0.30691978   0.40134978   0.90317057
 O    1.91788763   7.70912677   2.26973706  -0.99352724   2.20904869   0.83351441
 O    1.96558958   7.72999857   6.74714548   0.74816148  -0.50297823  -0.32399215
 O    2.01069280   7.81590890  10.63863270  -0.71270793  -0.61811321   0.99331356
 O    2.05069220  11.59784827   2.62871572  -1.73740616   0.05050928  -1.39223715
 O    1.88171609  11.66931340   6.56188346   0.90203537  -0.70059479  -0.65708362
 O    1.93246160  11.64736465  10.84348194   0.02716443   0.55071408  -0.18117188
 O    5.77922879   3.90482895   2.48401211  -0.34405607  -2.84152317   0.88360523
 O    5.92390324   3.79634945   6.78274162  -1.08166696   1.69894325  -1.33357231
 O    5.96442941   3.85176565  10.80418280  -0.87541851  -0.02984882   0.23496654
 O    5.94155589   7.74785022   2.39821980   0.47712261   0.01813633   1.55975559
 O    5.65216016   7.71751997   6.58584696   0.53522653   1.01565677   0.14395100
 O    5.90042101   7.71359846  10.83017858  -0.36214344   2.62422999  -0.34715002
 O    5.72477248  11.55872681   2.52089245   0.20299424   2.62150108   0.05908776
 O    5.88134023  11.55412636   6.57706949   0.27345170  -0.61220577   0.79901354
 O    5.79130938  11.69823892  10.81222466   0.54080900  -1.75087263  -0.07926743
 O    9.75036052   3.77424852   2.41419131  -0.63403258   4.45128054  -0.14270452
 O    9.74811297   3.84998634   6.67326011   0.28982960   0.11256188  -0.61501926
 O    9.63999635   3.84776220  10.89182038   0.45314116   0.73153428  -0.94913908
 O    9.58853678   7.83112670   2.42497613   0.50318746  -3.04399656  -0.08696891
 O    9.88236908   7.75102255   6.64445903  -1.38568866   1.09862803  -0.45317677
 O    9.83116704   7.72477769  10.79086698  -0.93259647   2.29007900   0.37135851
 O    9.58802171   0.01085146   2.59970268   1.39887913  -0.75166053  -0.37207969
 O    9.68094394  11.57572393   6.61821389   0.45450784  -0.71812568   0.00959792
 O    9.94715009  11.66053390  10.58406026  -0.61137330  -0.81629959   0.53566280
