# total energy = -399027.56926805
CRSYTAL
PRIMVEC
 11.70600000   0.00000000   0.00000000
  0.00000000  11.70600000   0.00000000
  0.00000000   0.00000000  12.46800000
PRIMCOORD
135 1
Pb    3.73971582   3.91193449   4.13415191  -0.38383010  -0.90672928  -1.12847238
Pb    4.00929329   3.95957791   8.44274360  -0.41080916  -1.38482435  -0.73088025
Pb    3.86139969   4.03387589  12.41134541  -0.30770921  -1.08745216   0.54657286
Pb    3.81189502   7.75794079   4.14461256   0.39638252  -0.16066915  -0.13502376
Pb    3.91283585   7.74725321   8.23389214   0.11908623   0.47592841   0.91669855
Pb    3.81201208   7.95563172   0.05288926   1.46362144  -0.89463323   0.52575703
Pb    3.85597981  11.64460203   4.19490847   0.64851638   0.80683721  -1.45227863
Pb    4.07909617  11.65970277   8.19294722  -0.98147663   0.75554201   1.39090338
Pb    3.67992157  11.69674055   0.02291618   1.17250996   0.26039284  -0.47431561
Pb    7.69285543   3.89663475   4.10091222   0.18604426  -0.55491160   0.66415705
Pb    7.87056422   4.01863468   8.33283818  -0.62420023  -0.80498071  -0.69605871
Pb    7.83112670   3.92647334  12.39532403  -1.10508669  -0.52255800   0.60703536
Pb    7.89183402   7.58802820   4.25057809  -0.70918270   0.66274806  -0.52554878
Pb    7.90306007   7.84792481   8.41747097  -0.10697246  -0.34736474  -0.93579966
Pb    7.88402612   7.90867895   0.01190694  -1.18708281  -1.34297114   0.15099231
Pb    7.83021364  11.56288244   4.28690984  -0.06366153   1.29199496  -0.76724814
Pb    7.95705985  11.58555697   8.28082169  -0.99118005   0.26252848  -0.59291445
Pb    7.56314125  11.57516204   0.13192391  -0.23776925   1.13782577  -0.48937142
Pb   11.43890420   4.02170165   4.14335329   2.24167627  -2.14322421   0.59292331
Pb    0.11238931   4.01442052   8.37205004   0.74530246  -0.51362554  -0.14014132
Pb   11.61448249   3.83132698  12.34769627   2.04831678   0.43377835  -0.12116870
Pb   11.70567223   7.83473215   4.22212612   0.43501897  -0.51779048  -0.30782884
Pb    0.23828734   7.83370202   8.34929594  -1.93169407  -0.84590788  -0.54859773
Pb   11.66349551   7.88271505  12.46214004   0.36533600  -0.82062139  -0.56436247
Pb   11.60463775   0.14061247   4.40409658  -0.18538850   0.83017416  -1.28106864
Pb    0.13940675   0.03605448   8.39368202   0.47091720   0.98615111  -0.77120927
Pb   11.50168348  11.57766712  12.39214469   2.13649385   1.45706388   0.67506122
Ti    1.86784448   1.83461114   2.18598950   0.83430365   2.49902516   0.27152741
Ti    1.95956099   1.91119180   6.30323480  -0.74493914   1.82510266   1.17465889
Ti    2.04150299   1.90676693  10.51941368  -0.55450397   1.36678662  -1.56825887
Ti    1.87849694   5.83409481   2.17176352   0.07772041  -1.70872807  -2.08884075
Ti    2.01541031   5.79779450   6.34460363  -1.89543252  -0.49594227  -0.59224983
Ti    2.02633201   5.93734173  10.49568708  -1.67240449  -4.43034262   0.62353561
Ti    1.90807800   9.71627265   2.17313500   1.77185348   0.30084592  -0.99137501
Ti    1.98554831   9.74348910   6.30810979  -0.17358489   0.10221823   1.77499047
Ti    1.92363527   9.68924350  10.38027080   2.13397273   2.96934420   1.26438230
Ti    5.87807425   1.88611754   2.24015050  -3.76185226  -0.33046572   1.15230114
Ti    5.83964345   1.97255465   6.35154830   0.66018264  -0.80841014   1.73745729
Ti    5.92349353   1.90848771  10.49021363  -0.68845991  -0.97262835   0.71338751
Ti    5.83170679   5.81634851   2.24644684  -0.63342069   0.63259657  -3.32566799
Ti    5.85942659   5.92046168   6.37658405   0.70270046  -3.44000441   0.12846177
Ti    5.90869715   5.81657093  10.51154638  -1.26630526   0.97430762  -0.02136525
Ti    5.92094162   9.66559738   2.28890038  -1.52476185   0.55441535  -1.07874124
Ti    5.84259337   9.67411934   6.31433132   2.23397113   0.38698482  -0.81399293
Ti    5.78825411   9.66099692  10.51778038  -1.00680743   0.57708325  -1.48219972
Ti    9.72557892   1.94470607   2.13238957   1.07874124  -3.22185025   1.23130648
Ti    9.72424444   1.95246715   6.45119256   0.86994933   0.66545084  -1.87505091
Ti    9.80294387   1.92210179  10.44930612  -0.62011504   1.00475155   0.20483522
Ti    9.73904082   5.78827753   2.08147026   0.11481495   1.21749129   2.50727086
Ti    9.81367828   5.85790481   6.38658338   0.12647235  -0.14302133   0.86833209
Ti    9.73595044   5.84285090  10.42183912   2.28165082   0.37639081   2.04893709
Ti    9.77398323   9.69593933   2.22894176  -0.12953845   2.47410199   0.52747174
Ti    9.85505899   9.70840622   6.33110078  -0.66001427  -0.67056397   0.98888047
Ti    9.71136784   9.77846663  10.51468831   0.89687521  -1.53408865  -2.01088107
 O    1.91326376   1.96546081   0.36094860  -0.32901242  -0.95529069   0.55663518
 O    1.83937549   2.10456321   4.53300323   1.11881327  -1.72163938  -0.63540125
 O    1.98211845   1.80843653   8.69752718  -0.60327806  -0.02444908   0.24368878
 O    1.77879694   5.65879746   0.28969398   0.56015322   1.47418000   2.04111232
 O    1.94812423   5.91144806   4.52690638  -0.07612976  -0.02916786  -0.39415383
 O    1.92065024   5.85028421   8.69737757   0.33628777  -0.11787219  -1.44201693
 O    2.07790865   9.71211702   0.29096572  -0.89585613   0.11179758   2.27047638
 O    1.95361434   9.38213659   4.57768854  -0.13017205   1.02905884  -2.11774719
 O    1.93838483   9.78269249   8.57453036  -0.13161206  -0.29941921   0.30279103
 O    5.93000207   1.83209435   0.47606564  -0.05912440  -0.38333829  -1.18999827
 O    5.78940130   1.80657527   4.60600337  -0.47454601   1.09177661  -1.91767063
 O    5.76810809   1.88108396   8.71358597   1.02075112  -0.15542310  -0.84720167
 O    5.77654811   5.82042220   0.40815245   0.61517472  -0.41732684   1.28103762
 O    5.84596469   5.87210419   4.56022087   0.70033885  -0.47888818  -0.95694337
 O    5.85015544   5.77919367   8.66171909  -0.40198303   0.04564152   1.56602133
 O    5.68631827   9.69803470   0.41453606   1.10961052   0.58305152   0.22748983
 O    6.04296497   9.61912456   4.48478947  -0.57636990  -0.58292303   1.54205078
 O    5.76114302   9.52825088   8.68145593   1.29009415   0.86993603   1.13941642
 O    9.89267036   1.79306655   0.32697330  -0.92293266   0.30613185   0.69841589
 O    9.84330616   1.83923501   4.62295985  -0.32759457   0.84571293  -0.37491093
 O    9.75757142   1.95487859   8.63817950  -0.20281922  -0.31947294   0.48113902
 O    9.62121993   5.87913950   0.35323091   1.19515127   0.45789512  -2.92522687
 O    9.72364743   5.76068648   4.55535835  -0.66172898   0.95640282   0.48212265
 O    9.65263883   5.79665902   8.65408867   0.16906992  -0.20254008  -1.62293477
 O    9.82824054   9.78808896   0.37546135  -0.05212376  -0.34268583  -1.08432403
 O    9.81195749   9.74516306   4.52208126  -0.64519329  -0.82608455  -0.81730716
 O    9.79954913   9.62172329   8.71172824  -0.43866108   0.85659937   0.69970525
 O    3.81945709   1.86859366   2.49752742   0.64608831  -0.00018166   0.68279737
 O    3.85743136   1.85756661   6.75731936   1.46237639   0.50148962  -1.37178011
 O    3.90382223   1.97769358  10.80459425   0.56267434  -0.36169390   0.74152300
 O    3.82066281   5.98258542   2.47660612   0.58393768  -1.55838265  -0.04876523
 O    3.86486467   5.71293771   6.67080391   1.58524651   0.02481683   0.18687725
 O    3.91125554   5.84863366  10.79307382   0.42736257  -0.39765859  -0.15121385
 O    3.82069793   9.52935124   2.62140947   1.01460562   1.15351961  -0.50152506
 O    3.96321848   9.68095565   6.65152838  -1.30960733  -0.13824938  -0.89049931
 O    3.91061171   9.65590481  10.71347810  -0.88341448   0.53585036   0.38152166
 O    7.68093872   1.86749330   2.62625952   2.88402499   0.98400661  -0.36218128
 O    7.86692365   1.94297359   6.50039129  -2.62258648  -1.75226054   1.55677871
 O    7.86903073   1.87490320  10.87763179  -0.06605415  -0.25839456  -0.58995912
 O    7.88628538   5.67968096   2.38106383  -3.41546672   0.94357126   1.84002998
 O    7.75655948   5.90311339   6.68044168   0.95651359   0.30074401  -0.37115806
 O    7.77451649   5.82695415  10.74564554   0.19969994   0.12720343   0.65506951
 O    7.83511845   9.85066924   2.31268932  -1.02701182  -0.80618589   0.42005621
 O    7.86515605   9.49906782   6.71987796  -1.11459073   0.90108003  -0.33634537
 O    7.79172431   9.74533865  10.78337371   0.96044812   0.24363561   0.30911819
 O   11.64032934   1.84111968   2.59638619  -0.32321696   0.02821081  -1.23996867
 O    0.02563614   1.75483475   6.59846458  -0.94768746   0.36370991   1.18936024
 O    0.04492763   1.99315721  10.71083489  -2.21080699   0.08666617   0.32209597
 O   11.60637023   5.78783270   2.59248371   1.23783303   1.34448204  -1.15449881
 O    0.03775185   5.87115601   6.66629050  -1.73465260  -1.13072322   0.13209058
 O   11.65071256   5.72899834  10.60821078   0.02060758   0.71373754   0.93085491
 O    0.03510629   9.70588943   2.45415125  -1.76499019  -0.11223180   0.12473105
 O    0.06700514   9.69574033   6.50737337  -1.40732388   0.09353389   0.92872370
 O    0.10087060   9.69160811  10.79597886  -2.93999911  -0.54132681   0.26019346
 O    1.89806937   3.82251236   2.47597025   0.27691968   1.88880407   0.25444673
 O    1.85015671   3.86355359   6.55884127   0.37879673   0.57815550   1.39096542
 O    1.96770836   3.92499839  10.60945758   0.24465026  -1.07777976   1.02948863
 O    1.90019986   7.75864315   2.30670468  -1.40560916  -0.88945807   0.52704196
 O    1.89787037   7.74259423   6.71916728   1.52219643   0.40224888  -0.17339880
 O    2.00856230   7.78993329  10.68026335  -0.99293021   0.91095182   0.94550308
 O    2.01220287  11.61059610   2.62637173  -0.64181703  -0.06219051  -0.73775240
 O    1.89927509  11.67001576   6.54848036   1.11110813  -1.82817762  -0.48699209
 O    1.88604731  11.64713053  10.82197464   0.65530877  -0.14859969  -0.22449462
 O    5.73896015   3.90951135   2.53474440   0.36610696  -1.06676483   0.52810092
 O    5.98278442   3.76695568   6.78396348  -1.32564677   2.44873575  -1.06998601
 O    5.86920110   3.81653059  10.88581080   0.08230184   1.94147725  -0.51041322
 O    5.94114618   7.76649788   2.44453842   0.70272261  -1.15945686   0.92868382
 O    5.71430731   7.69403774   6.65674001   0.48083773   2.22177761  -0.10205429
 O    5.85377260   7.73516092  10.88875325   0.59032244   0.70612545  -0.43438980
 O    5.72761703  11.55871511   2.64349030   0.31725312   1.53295437  -0.66381588
 O    5.88419649  11.56289415   6.55147268   0.68672748   0.37023645   1.14852611
 O    5.78325565   0.02293205  10.75884916   0.66349687  -2.72053343   0.74260854
 O    9.74216632   3.86130604   2.38197400  -0.25618803  -1.17853140   0.29494411
 O    9.60957246   3.87328128   6.66178955   1.85974254   1.40964561  -0.00056271
 O    9.65066052   3.93116745  10.91250479   0.67365666  -1.60711686  -1.34479663
 O    9.60258398   7.84115875   2.44841597   0.83676717  -1.42007568   0.10027311
 O    9.88617353   7.74783851   6.74461447  -0.83098943  -0.04538454  -0.96196345
 O    9.82756159   7.76155795  10.78424647  -0.95684589   1.29612888   0.77263155
 O    9.57588259   0.03150085   2.58610009   1.60055487  -0.78991161  -0.85840713
 O    9.66312741  11.59884328   6.59540992   0.33521995  -0.41486333   1.13288101
 O    9.92041358  11.68817176  10.54897531  -0.58924576  -1.04260818   1.14582334
