# total energy = -399028.36928280
CRSYTAL
PRIMVEC
 11.70600000   0.00000000   0.00000000
  0.00000000  11.70600000   0.00000000
  0.00000000   0.00000000  12.46800000
PRIMCOORD
135 1
Pb    3.76147727   3.91447469   4.14400163   0.48884104  -0.74898863  -0.68571632
Pb    3.99094999   3.94627990   8.42589934  -0.73753168  -0.33547218  -1.10404683
Pb    3.86389307   4.03145275  12.40234351  -0.01938900  -1.51130158   1.06005216
Pb    3.82159929   7.74981683   4.14185713   0.59283155  -0.07936771   0.11006376
Pb    3.91779920   7.77601486   8.25945154   1.05510533  -0.13509772   0.26978855
Pb    3.81451716   7.96458681   0.04293979   0.52510495  -1.12121725   0.15086333
Pb    3.85656511  11.64639305   4.19862394   0.30608244   0.61717167  -1.11634323
Pb    4.06109234  11.65029115   8.19056584  -0.17003390   0.22917743   0.79768600
Pb    3.67532111  11.67788219   0.01458756   1.08802424   0.91215693  -0.46457802
Pb    7.68202738   3.91682760   4.09957814   0.50512918  -0.46146858   0.27347191
Pb    7.87937884   4.00853240   8.32919753  -0.81028221  -0.53383364  -0.60908970
Pb    7.82933569   3.90951135  12.40445060  -1.31076865   0.29179017   0.85790027
Pb    7.88836904   7.59448991   4.23518011  -0.17961490   0.78414324  -0.03103868
Pb    7.91601862   7.84184940   8.39443010  -0.61628509  -0.11607705  -1.18183412
Pb    7.87793900   7.88894264   0.00299232  -0.45505269  -1.04979445   0.07341867
Pb    7.82767343  11.55858634   4.26932996  -0.18395355   1.02294023  -0.48197544
Pb    7.93164613  11.59258057   8.26539877  -1.27752852   0.16352379  -0.34662931
Pb    7.59385779  11.58087457   0.11547862  -0.21723223   0.96768563  -0.96347976
Pb   11.47854071   4.00984348   4.14340316   1.02316294  -1.01690124   0.02772795
Pb    0.10585736   4.01874004   8.36854654   0.95815603  -0.56367737  -0.43486706
Pb   11.60228484   3.85829760  12.33767200   1.75456570   0.35547793   1.25383941
Pb   11.69553484   7.81964312   4.21988188  -0.18927728   0.01605257  -0.97322351
Pb    0.22265983   7.84716392   8.34839825  -2.16436025  -0.75246640  -0.26494451
Pb   11.66740532   7.86810596  12.46207770   0.01900782  -0.61788264  -0.17066350
Pb   11.60738866   0.14617282   4.39142909   0.12074120  -0.51556677  -0.92104837
Pb    0.13602372   0.01037152   8.39765932  -0.22446616   0.55733001  -0.93732366
Pb   11.51081416  11.57520886  12.36952774   1.61839295   0.84067416   0.32124843
Ti    1.85232232   1.85627895   2.22844304   1.78996444   1.28767487  -1.91482586
Ti    1.96804784   1.91437583   6.33260941  -1.34298515   0.75608551  -0.13427967
Ti    1.98629749   1.89846737  10.50157198   1.11750820   0.30499885  -0.00281391
Ti    1.86709529   5.78419213   2.20956649   0.20942009   0.77294756  -1.85149787
Ti    1.98279740   5.80870450   6.33430506   1.13825919  -0.34322435   0.26912041
Ti    2.00647864   5.86306716  10.51604732  -0.73308168  -0.55680321  -2.11931625
Ti    1.93325761   9.72755723   2.20385615  -0.23928952  -0.87428263  -0.18605649
Ti    1.99732454   9.67352234   6.32667464   0.05139135   1.22363591  -0.57771267
Ti    1.90567827   9.69225194  10.36497257   0.96402798   1.28221837   3.56309253
Ti    5.84328402   1.89770648   2.27102126  -1.80734902  -0.38513321  -0.31757793
Ti    5.83504300   2.01422801   6.34469090   1.15277846  -1.75203446   0.00083518
Ti    5.90601647   1.90154605  10.50694568  -1.18921796  -1.88842992   1.72588693
Ti    5.84161006   5.84150471   2.22371767  -0.20164222  -0.05556725  -1.14070048
Ti    5.90479905   5.88911301   6.38589764  -0.58845007   0.42679366  -0.76985954
Ti    5.87531164   5.81964961  10.49123600   0.06252708   1.51876251   2.96753701
Ti    5.91836630   9.68539222   2.22415405  -1.33924183   0.21174146   1.72803270
Ti    5.87462098   9.68042888   6.29808552   2.20270568  -0.79741189   3.69808745
Ti    5.76700772   9.64634101  10.51926407   1.07597196   1.53964627  -0.39892009
Ti    9.73415942   1.93345661   2.10584520  -0.50965199  -0.78495273   2.84025143
Ti    9.71562882   1.97545774   6.42015971   0.59327698  -0.29246259  -0.10936563
Ti    9.77818568   1.93778783  10.45582688  -0.83349162  -1.51263786   1.13016438
Ti    9.72289825   5.84290943   2.14195253   0.06867314   1.41373981   0.11641112
Ti    9.84543665   5.82614644   6.43755257  -1.88797164   2.28307989  -2.15953334
Ti    9.74669654   5.80944197  10.42314826   0.89780041   2.84780231   1.92261658
Ti    9.78008206   9.77719067   2.22611153   0.74155339  -0.38760448   0.36693059
Ti    9.85301044   9.73508419   6.40082184  -1.87130232  -1.57081772  -1.08465354
Ti    9.69651292   9.73230987  10.49434054  -0.16115959  -0.11718205   1.28929812
 O    1.91747792   1.93205189   0.35513851  -0.29269387  -0.41452295   1.91789247
 O    1.90554950   2.06287814   4.52726795   0.38491050  -1.42625893   1.34791484
 O    1.93084617   1.80024233   8.68893673  -0.33468839   0.42950906  -0.01846817
 O    1.83451750   5.68835511   0.34129903   0.32252476   0.58997053   1.27954151
 O    1.87013885   5.92896023   4.52400133   0.31577480  -0.48561168   0.07586853
 O    1.97495438   5.86093667   8.59696030  -0.55473453  -0.17765330   2.71000203
 O    2.01308082   9.75233884   0.35094926  -0.50231955  -0.03630245   0.90252881
 O    1.98916546   9.42672474   4.55164289  -0.41575216   1.31040459  -0.17360162
 O    1.99178761   9.75630717   8.59775825  -0.27162595  -0.13319180  -1.07536806
 O    5.92105868   1.78511818   0.47195120  -0.27832879  -0.03820409  -0.06372631
 O    5.80331974   1.87438813   4.55987177  -0.31026262   0.90353959   1.21709581
 O    5.80485322   1.82586676   8.73786116   0.52179849   0.78836197  -1.63161876
 O    5.87761772   5.76834221   0.42169270  -0.20180925   0.07009508   0.76961969
 O    5.86385146   5.93912104   4.56601849   0.76073253  -1.14169413  -0.30552993
 O    5.81632510   5.81909942   8.73225056  -0.01809555  -0.46937923  -1.48313677
 O    5.76756961   9.77239121   0.43305104   0.03472632   0.17782891  -0.43706422
 O    6.06019620   9.60330975   4.59096696  -0.29310932  -0.11554168  -4.28254151
 O    5.75461107   9.51673217   8.74383334   0.89371018   1.14127012  -0.96947163
 O    9.81775196   1.80909206   0.34657300  -0.14739841   0.39142061  -1.16992318
 O    9.84844510   1.78394758   4.65123727  -0.58335762   1.27253886  -1.68582403
 O    9.76818876   1.96637388   8.68408668  -0.21532202   0.34568706  -0.80273562
 O    9.61398562   5.91558028   0.36564904   1.19659324  -0.12137080  -1.72055463
 O    9.67050219   5.75868476   4.55113170   0.37246419   0.47860903   1.73946394
 O    9.72335478   5.87840202   8.63337932   0.48785596  -1.34092075   0.12454876
 O    9.84100008   9.76098957   0.37457612  -0.04993943   0.14817791   0.14519268
 O    9.80295558   9.72255877   4.57581834  -0.45743831  -0.14428897  -0.83414692
 O    9.77889975   9.67818133   8.75549092  -0.44993454   0.29581188  -3.39018904
 O    3.85397809   1.94365253   2.52430868  -0.34475337  -1.15523260   0.43502124
 O    3.83386718   1.91885923   6.76236890   2.22216749   0.09908222  -0.99580761
 O    3.89562803   1.95459764  10.86419129  -0.57801676  -0.39160050  -0.21968209
 O    3.79805852   6.00465123   2.53140298   0.92198206  -1.90243951  -0.67981010
 O    3.95716648   5.72307511   6.66668947  -1.41381262   0.47368361  -0.04721974
 O    3.92897843   5.91939643  10.78210198  -0.92256883  -0.72129923   0.38640954
 O    3.86746340   9.54202884   2.59285775   0.82519979   1.14454231  -0.49767253
 O    4.00829828   9.64587277   6.63656678  -3.40323068   0.46946489  -0.44624262
 O    3.89766488   9.60100367  10.76205343  -2.68708815   1.31125691   0.40100161
 O    7.73742017   1.83582857   2.55939364   1.77528670   1.26174149  -0.02552222
 O    7.85958399   1.95387187   6.55367952  -2.96686458  -1.15645753   1.30844728
 O    7.82687743   1.87880129  10.88256912   0.70003000   0.50497071  -0.80137363
 O    7.86119942   5.68128469   2.42890355  -3.69480242   0.63921183   1.32789624
 O    7.77517202   5.93336169   6.69056569   0.94480173  -0.35026984   0.55649912
 O    7.82120002   5.80825967  10.69495066  -0.66079800   0.12265141   0.54090911
 O    7.82680719   9.75526534   2.31972127  -0.70931976   0.39681715   0.76564510
 O    7.89903321   9.50776538   6.68221213  -1.56893322   1.30332485   0.81603424
 O    7.75577518   9.71274914  10.83268465   1.18959915   0.58293789   0.16444891
 O   11.66192691   1.82440351   2.59932864  -0.79616982   0.77118298  -0.97652997
 O   11.67577511   1.80014868   6.63201596   1.42980951   0.70696413   0.90063146
 O    0.05066357   1.97975384  10.79672694  -2.03883497   0.54273793  -0.44368997
 O   11.60439192   5.82779698   2.60806871   1.89363801  -0.12519977  -0.83032223
 O    0.01135482   5.82602938   6.65788706   0.34181097  -0.98112559   0.15566454
 O   11.69320534   5.76952451  10.74558320  -0.32959594   0.40460788  -0.24279299
 O    0.01020763   9.69465167   2.52837325  -1.16110455   0.43145781  -0.24457043
 O    0.00787814   9.76702987   6.60646903   2.24517132  -0.46940921   0.95434418
 O   11.69519536   9.66587832  10.71922585   1.28418425   0.25991202   0.45120659
 O    1.95932687   3.80545672   2.54379617  -0.96975431   2.44667648  -0.31096074
 O    1.97138405   3.92299666   6.61656811  -0.90702165  -1.65317495   0.79693219
 O    2.01295205   3.95429851  10.58862355  -0.21801173  -1.53769324   0.83660534
 O    1.82771631   7.77930424   2.36560351  -0.34654794  -1.43439229   0.25180008
 O    1.89242708   7.76621693   6.68507977   0.78370638  -0.27607595   0.08013437
 O    1.96481698   7.79318756  10.75927307  -0.87901959  -0.08203600   0.31224563
 O    1.94722286  11.62346099   2.59219694   0.56281650   0.58421421  -0.01688775
 O    1.96139883  11.60708430   6.51626305   0.45618340   0.97443131   0.18311409
 O    1.86707188  11.64281101  10.79091685   0.63902338  -0.23932379  -0.32795985
 O    5.71477555   3.86677274   2.60515120   0.82114810   0.78993382  -0.31810473
 O    5.98442326   3.83509631   6.74057484  -0.94306284   0.73034486  -0.28778559
 O    5.78013015   3.85326402  10.94164250   1.00152966   0.74020426  -1.48349225
 O    5.96751980   7.74472472   2.52677735  -0.07827984   0.12526830  -0.47501133
 O    5.79516065   7.74937200   6.72205986   0.26297006  -0.72131636  -0.06820201
 O    5.83135561   7.78370570  10.92939893   0.85024660  -1.95886764   0.04489837
 O    5.74463756  11.62081544   2.73388330   0.58976494  -0.83789452  -1.29486598
 O    5.91287619  11.58932630   6.57481278   0.09128294   1.66637935   0.96635791
 O    5.80198525  11.65595685  10.73624467   0.19210404   0.03333435   0.82754258
 O    9.72522774   3.91001471   2.36362110   0.60061371  -3.39801402   0.68145476
 O    9.55128829   3.94084831   6.64993248   2.23431399  -1.13869605   0.46590146
 O    9.68937226   3.94812944  10.87675903   0.60296077  -2.18962120  -1.10513042
 O    9.64994645   7.78905534   2.47550893   0.54946648   0.61811820   0.18592372
 O    9.85572623   7.74760439   6.80261561   0.16695873  -0.23867278  -0.85632413
 O    9.78440157   7.84214205  10.80824737  -0.49546251  -2.58949640   0.33924976
 O    9.63117003   0.01506562   2.53968173   1.15307826  -1.18309332  -0.36157688
 O    9.66039991  11.60941379   6.61902431   0.24364959   1.26158730   1.29183792
 O    9.87017143  11.68041068  10.56327611  -0.23710521   1.28649706   1.38321936
