# total energy = -399029.01691380
CRSYTAL
PRIMVEC
 11.70600000   0.00000000   0.00000000
  0.00000000  11.70600000   0.00000000
  0.00000000   0.00000000  12.46800000
PRIMCOORD
135 1
Pb    3.78295778   3.91450981   4.15085903   1.09611446  -0.14810059  -0.06233086
Pb    3.97207992   3.93282970   8.40679836  -0.09147653   0.10878713  -1.53439985
Pb    3.86610550   4.02452280  12.39746852   0.26429909  -1.21268595   1.31137616
Pb    3.83245075   7.74206746   4.13951315   0.76680642  -0.14266235  -0.14915616
Pb    3.92563051   7.80190853   8.28391375   1.02414173  -0.93206096  -0.31915144
Pb    3.81852061   7.96901168   0.03454883  -0.37529807  -1.75188833   0.24899519
Pb    3.85806348  11.64998679   4.19852419  -0.09884687   0.24266550  -0.34589504
Pb    4.04388452  11.64262372   8.19087754   0.02928741   0.56549465  -0.17757823
Pb    3.67463046  11.66341357   0.00561060   0.96624203   1.07697619   0.05511717
Pb    7.67362247   3.93378959   4.09950334   0.43881132  -0.91170673   0.30296727
Pb    7.88481042   3.99736488   8.32389863  -0.99364583  -0.68775802  -0.31358638
Pb    7.82378704   3.89453938  12.41553466  -0.64517714   0.17198706   0.66955969
Pb    7.88422512   7.60315235   4.22089178  -0.89559716   1.37829856   0.15030125
Pb    7.92593360   7.83573887   8.36965619  -0.83933490  -0.70588175  -0.70069714
Pb    7.87066957   7.86736848  12.46323722  -0.24647003  -0.80612734   0.59700510
Pb    7.82467670  11.55793081   4.25156306  -0.48661037   0.65576641  -0.57430474
Pb    7.90428920  11.59992023   8.25032496  -1.18042579   1.14054911   0.50043722
Pb    7.62151907  11.58927947   0.09749976   0.46679698   1.01370166  -0.55984381
Pb   11.51835282   3.99550363   4.14359018   0.26561203  -0.59465151  -0.51799026
Pb    0.10268503   4.02069494   8.36400818   0.13227077  -1.21236518  -0.48208969
Pb   11.59658402   3.88423810  12.33239803   0.69987283   0.00360311   2.00679546
Pb   11.68588909   7.80587686   4.21477000   0.18129324   0.60204796  -1.14716601
Pb    0.20134320   7.85714914   8.34666520  -1.82642724  -0.44150806  -0.07062622
Pb   11.67120977   7.85266574  12.46151664   0.16454212  -0.54274581   0.32937145
Pb   11.61036198   0.14983680   4.37667944   0.63313320  -1.07897543  -1.00130710
Pb    0.13216074  11.69451641   8.39819544  -0.90165830   0.12519136  -1.01901308
Pb   11.52433459  11.57582928  12.34996544   0.64252516   0.96730879   0.66281971
Ti    1.86057505   1.89428833   2.24367894   0.61447609   0.03562083  -1.22258146
Ti    1.95981852   1.92782602   6.35998914   0.18220707  -0.37894967   0.36530186
Ti    1.94810081   1.89571646  10.48369286   0.31810706  -0.28359029   0.45599883
Ti    1.86098476   5.74869954   2.22016429   1.22918716   2.51883275  -0.17245703
Ti    1.96628023   5.81324642   6.32734792   1.91450954  -0.52420060   0.22033441
Ti    1.97785747   5.78694304  10.50794312   0.14854818   2.90408228  -1.90887361
Ti    1.95396552   9.72651540   2.23185928  -1.53131893  -1.14451776   2.15695870
Ti    2.00849207   9.62826694   6.33688594   0.01698610   3.10816539  -1.98777282
Ti    1.90333707   9.71251502  10.39408535  -0.12505708  -0.67625118   0.87607844
Ti    5.78584268   1.90331366   2.29595726   0.46461497  -0.11340105  -0.94301576
Ti    5.84577740   2.02965652   6.34172352   0.57271206  -1.11030311   0.42455179
Ti    5.87514775   1.87078268  10.54125762  -0.28277716  -0.94284791  -1.00645814
Ti    5.84487604   5.86470600   2.18982965  -1.80286528  -0.09512813   2.52376372
Ti    5.93916787   5.86215409   6.38407732  -1.10371232   1.07894186  -1.15641250
Ti    5.84505163   5.84221877  10.50890316   0.86860739   0.60283871   1.71842340
Ti    5.89836075   9.70597137   2.18926859  -0.12517644  -0.52478620   3.72955676
Ti    5.93217938   9.67678831   6.32248540  -0.01340164  -0.52407005   0.13473998
Ti    5.75983195   9.65247495  10.51639643   1.25772485   1.11264551   1.32788110
Ti    9.73593873   1.91123862   2.11624351  -1.10657318   0.79516881   0.54124638
Ti    9.71494987   1.99281773   6.38958817  -0.55333135  -0.70845167   1.22656502
Ti    9.74428511   1.93348002  10.47560113  -0.61621424  -1.86997790   0.32393321
Ti    9.70957682   5.90980922   2.19962950   0.06709398  -0.85369513  -2.65444554
Ti    9.84933475   5.82659126   6.45743903  -2.49397650   2.33509641  -1.95307328
Ti    9.76894965   5.81422973  10.45031603  -0.65432293   1.63723402   0.64287950
Ti    9.79422290   9.84745009   2.22831836   0.16667564  -2.29662965  -0.25247149
Ti    9.82888437   9.73940371   6.45078112  -0.17595198  -0.92252726  -2.12340425
Ti    9.68213795   9.68906791  10.48587476   0.01671382   1.67133676  -0.42380208
 O    1.91005631   1.88425629   0.42103189   0.05282327   0.20668287   0.46561459
 O    1.98147462   1.96794248   4.56731516  -0.54437952  -0.27503010   0.42388414
 O    1.87175428   1.80952519   8.68367524   0.44107911   0.48726683   0.41444741
 O    1.89946238   5.74037657   0.43162969   0.14855564  -0.24036786  -2.01987259
 O    1.81229951   5.92522602   4.52786641   0.75653792  -0.70978698   1.13171291
 O    2.00323607   5.86378123   8.60666040  -0.91675333  -0.13265495   3.10675547
 O    1.93244989   9.78756219   0.43935985  -0.10069318  -0.21334825  -1.36853734
 O    2.00483980   9.51902655   4.51499944  -0.51855721   0.64904881   0.63987318
 O    2.02863809   9.72556721   8.58941716  -0.51094070  -0.16329632   1.07370504
 O    5.90113507   1.74098656   0.46323607  -0.46734901   0.45223533   0.64177917
 O    5.80409233   1.97127869   4.55295203   0.13296827  -0.12239392   0.51342856
 O    5.85880618   1.80670404   8.71049390  -0.39985220   1.15027677   2.08203933
 O    5.96289593   5.72206839   0.45202734  -0.74114823   0.27486598  -2.60053687
 O    5.91033599   5.95495926   4.56221575   0.28576857  -1.03205291   1.21716187
 O    5.78422725   5.83806314   8.74781063   0.23322505  -0.32911408  -1.10427554
 O    5.84364691   9.84761397   0.42599416  -0.92321356  -0.40320168  -1.76901617
 O    6.05996208   9.58545810   4.55467261  -0.66534114   0.62414034   0.07621365
 O    5.78492961   9.55271642   8.76441800   0.09921240   0.93486959  -1.60707380
 O    9.74224826   1.83950425   0.32633743   0.43551779   0.24590308  -0.35682373
 O    9.82958673   1.78497770   4.61641415  -0.52986636   1.06700609  -0.38492129
 O    9.76853994   1.98881428   8.69528294  -0.33844264   0.25953970  -1.07561103
 O    9.65517904   5.94322985   0.31376969   0.54242503  -0.87502660   2.54554651
 O    9.63628555   5.77733242   4.60685119   1.04474586   0.06202873  -0.53594988
 O    9.80702927   5.90021030   8.62149732   0.36554804  -1.40490415   2.29121006
 O    9.85001370   9.74067966   0.37402753  -0.20124090   0.16254288   0.06869039
 O    9.77537624   9.69581056   4.59672718  -0.26486977   0.48337279   0.81268829
 O    9.74052748   9.74259944   8.68527114  -0.47030684  -0.36022543  -0.17693668
 O    3.87314081   1.96739230   2.56539074  -0.67153282  -1.24658728  -0.23288935
 O    3.89512468   1.97811500   6.72707200   0.17860396  -0.54907177  -0.05556849
 O    3.86879788   1.91699797  10.91083408  -0.33660005  -0.36941224  -0.78514275
 O    3.81496199   5.94949256   2.55612702   0.78550456  -0.94171775  -0.47355188
 O    3.98925262   5.75321806   6.66130330  -2.24914018   1.01576058  -0.16638471
 O    3.90911335   5.95498267  10.78842325  -1.39698551  -0.69358044   0.84513121
 O    3.93765257   9.59915412   2.54565390  -1.14104892   0.36213888  -0.45076574
 O    3.93195175   9.63121685   6.60402530   0.66525162   0.47499536   0.09482227
 O    3.79501496   9.60343852  10.82113928   0.98860296   1.29182760  -0.06890299
 O    7.85662237   1.85554147   2.49867448  -1.61353777   0.35848355   0.61310347
 O    7.74807263   1.91791104   6.65419654   1.82743432   0.14376268   0.23520191
 O    7.80662605   1.90119487  10.85510212  -1.18070180   0.58905289  -0.49489827
 O    7.71176062   5.70935567   2.52551808   3.30704524   0.27707783  -0.04266667
 O    7.82809485   5.94840390   6.72085046  -0.02120465  -0.44172439   0.74929067
 O    7.84043297   5.79554695  10.67112431  -0.34807704  -0.02371862   0.38963965
 O    7.79507222   9.68298079   2.35673876   0.92202745   1.10303721   0.65840720
 O    7.86808255   9.56925700   6.67716259  -0.77426255   1.18840411   0.69561325
 O    7.76837084   9.70517536  10.88244444   0.13282653   0.28137471  -0.55580802
 O   11.65702210   1.83909454   2.56396939   0.87993892   0.79620200   0.12713839
 O   11.67349244   1.87016227   6.69682463   0.91986036   0.60508785  -0.34773016
 O   11.68937748   1.98685938  10.85793235   1.38035375   0.08289396  -0.83763033
 O   11.66257074   5.85989483   2.58739676  -2.13917066  -1.28672133  -0.42559990
 O    0.00117060   5.74557404   6.65634103   1.85287618  -0.15316957   0.05550508
 O    0.01374284   5.82237710  10.86210913  -0.23041268  -0.25723834  -1.11552874
 O   11.64976438   9.70023543   2.58712247   0.92172532   0.32905440  -0.31640621
 O    0.02636191   9.81328027   6.73334340   0.54649439  -0.84196450  -0.08225987
 O   11.63394957   9.65160871  10.66774548   2.09981618   0.61705720   0.55481586
 O    1.97735411   3.87687502   2.59505212  -1.36459480  -0.92456007  -0.28176262
 O    2.04681751   3.91751825   6.70264718  -1.40118168  -1.33262184   0.06206603
 O    2.04500308   3.91752996  10.60597901  -0.70247259  -1.32296133   0.93055034
 O    1.74859546   7.74993389   2.43052439   1.18445411   1.05844590   0.08913413
 O    1.91986594   7.77030233   6.65761277  -0.14342326  -1.92371500   0.38715552
 O    1.88958252   7.79645353  10.84547682  -0.20103202  -0.25437002  -0.19617566
 O    1.90880377  11.65557055   2.55885751   1.02533531   0.07346470   0.36997546
 O    2.03761660  11.58621250   6.49450639  -0.21852539   2.44998944   0.86377713
 O    1.87498514  11.63219367  10.75083223   0.17224816   0.44960946   0.13222228
 O    5.72552166   3.85150812   2.65623259   0.76462068   0.26153521  -1.11136241
 O    5.94793566   3.92859213   6.68838379  -0.12748527  -0.91740606   0.37008363
 O    5.73760225   3.91459175  10.93456068   1.02939347  -1.35497158  -1.32035783
 O    5.98701029   7.72963568   2.58244697  -1.13349208   1.23853437  -1.64229926
 O    5.87863614   7.78439635   6.77800378  -0.35425381  -0.29672710  -0.27836466
 O    5.84319037   7.76320849  10.96625434   0.21829414  -0.20249789  -0.03776927
 O    5.78449649  11.65294841   2.76379403   0.64604994  -0.54622210  -1.40686237
 O    5.94120471  11.66624642   6.63322536  -0.89909211  -1.17321584  -0.09523257
 O    5.82632203  11.58593156  10.74875008  -0.46026587   1.54699210   0.41945298
 O    9.73198210   3.83682880   2.37514153   0.66482268   0.89841699   0.91762240
 O    9.58755347   3.95599588   6.65676494   1.38609412  -2.90029640   0.34601812
 O    9.74858121   3.88698901  10.79974420   0.06111490   0.94472034  -0.19022642
 O    9.71469234   7.75424170   2.50674127  -0.23391508  -0.37788291   0.03184241
 O    9.83325071   7.74406918   6.81857465   0.69322609   1.14570014  -0.93895014
 O    9.72463073   7.82278033  10.84206059   0.15379619  -2.08641081  -0.68137238
 O    9.72835324  11.66337845   2.48353832   0.14743293   0.49357787   0.59081714
 O    9.66971789  11.66289851   6.68929396   0.49312655   0.55631902  -0.03217064
 O    9.81321004   0.00339474  10.63219921  -0.09568389  -0.72702299   0.90701821
