# total energy = -399028.51078201
CRSYTAL
PRIMVEC
 11.70600000   0.00000000   0.00000000
  0.00000000  11.70600000   0.00000000
  0.00000000   0.00000000  12.46800000
PRIMCOORD
135 1
Pb    3.80695508   3.91372551   4.15718030   0.79767173  -0.58477077   0.36974924
Pb    3.95376003   3.92011699   8.38374503   0.38078240  -0.00884673  -0.97044412
Pb    3.86907883   4.01380010  12.39682019   0.38478208  -1.05307210   0.48273268
Pb    3.84524541   7.73431808   4.13682006   0.53127772   0.15971962  -0.02956080
Pb    3.93647027   7.82384557   8.30645590   0.65799444  -1.27545639  -0.50728399
Pb    3.82113105   7.96754843   0.02730492  -1.09043030  -1.85078334   0.12941684
Pb    3.85924579  11.65449360   4.19722752  -0.52800245   0.43450815   0.18094298
Pb    4.02739077  11.63718043   8.19081520  -0.15532480   0.93966278  -0.37151858
Pb    3.67725260  11.65313570  12.46515730   0.73360651   1.14200474   0.52482817
Pb    7.66718417   3.94687690   4.10043844   1.02006481  -1.92142983   0.22878555
Pb    7.88689409   3.98417222   8.31806360  -0.61048994  -1.20129317   0.70814199
Pb    7.81618985   3.88076141  12.42823955  -0.40640937  -0.08242602   0.00767009
Pb    7.87747076   7.61600554   4.20762583  -0.96359943   1.91480905  -0.02564453
Pb    7.93254749   7.82766173   8.34373522  -1.24269936  -1.06342035   0.36316797
Pb    7.86284996   7.84389795  12.45773884  -0.32735520  -0.69892207   0.95099888
Pb    7.82020501  11.55956965   4.23269898  -0.69155493   0.61331299  -0.62882000
Pb    7.87423990  11.61078340   8.23749539  -0.80472277   2.12651581   1.27199673
Pb    7.64932082  11.60079818   0.07843619   0.49304581   1.27714671  -0.10831641
Pb   11.55733380   3.97953664   4.14205662  -0.40172477  -0.92336548  -0.65980330
Pb    0.10007459   4.01842397   8.35816069  -0.70053775  -2.15921138  -0.23808010
Pb   11.59352875   3.90899629  12.33379445   0.16368858  -0.72896582   1.82476123
Pb   11.67709789   7.79441669   4.20616708   0.25754290   0.41438679  -0.93294102
Pb    0.17501641   7.86520287   8.34475759  -0.84025456  -0.31452635   0.21332683
Pb   11.67547075   7.83601981  12.46199042   0.50583515  -0.60862840   0.57890076
Pb   11.61527850   0.15017627   4.35917437   1.01943259  -0.33860788  -1.11467868
Pb    0.12566391  11.67432356   8.39542754  -0.95876995   0.84227416  -0.90221237
Pb   11.53969286  11.57961032  12.33344534   0.66274928   1.18256797   1.14447656
Ti    1.87701028   1.93120906   2.24308048  -0.75684947  -1.15106221   1.01809789
Ti    1.95252568   1.93646505   6.39204437   0.29224489  -0.49740551   1.07309248
Ti    1.91675215   1.88993370  10.47282077  -0.06130803  -0.12019693   0.65715587
Ti    1.86985791   5.74899219   2.22496447   0.17940194   2.45699261  -0.47032970
Ti    1.97693269   5.80906738   6.32571461   1.50280627  -1.33764690   1.24643123
Ti    1.95141361   5.75104074  10.47853111   0.12337999   2.60566590   3.06999387
Ti    1.95268957   9.71224579   2.28382590  -1.92699251   0.97398281   0.35884340
Ti    2.01865288   9.62676857   6.32189940  -0.48350540   2.88293941  -0.48078333
Ti    1.89925168   9.72389326  10.43658876  -0.77042908  -1.32669716  -0.52341006
Ti    5.73613900   1.90652110   2.30623090   1.58406883  -0.15626435  -1.28834671
Ti    5.86346516   2.02768991   6.34525196  -0.47797345  -0.94560304   0.99548276
Ti    5.84008828   1.82906250  10.56264024  -0.35605108   1.03965932  -1.36088547
Ti    5.82568990   5.88441890   2.18401956  -0.81519396  -0.85928709  -0.00079467
Ti    5.95531044   5.85076415   6.37052460  -2.02692758   0.73938871   1.89337495
Ti    5.82752774   5.87018441  10.54837685   0.85967784  -1.76985007  -1.40872365
Ti    5.87754748   9.72046340   2.20217297   1.04482686   0.32042709   0.72427683
Ti    5.98661228   9.66682651   6.35136128  -2.55091718   0.43856052  -2.17319491
Ti    5.77084729   9.67526653  10.52883949   0.97146270   1.02224246   0.39127993
Ti    9.72433808   1.90135876   2.13488317  -0.06350764   2.17117970  -1.21233511
Ti    9.70915540   1.99924433   6.37644690   0.33336570  -1.15684441   1.28817109
Ti    9.70348970   1.90556121  10.49758222   0.03915829   0.07881269  -1.58054331
Ti    9.69883071   5.95953631   2.21915438   0.86931045  -4.24063742  -2.78400974
Ti    9.82127547   5.85648839   6.45010784  -0.08418658  -0.46746714  -0.46434115
Ti    9.78278614   5.84062676  10.48719637  -0.75128679  -1.04405853   0.44067232
Ti    9.80961629   9.88000447   2.22654791  -0.73617491  -4.38999562  -0.93701974
Ti    9.80287364   9.73190016   6.47019379   1.42525802   0.95361119  -1.33856011
Ti    9.66964765   9.66953059  10.47385561   0.88130073   1.79996406  -1.30386690
 O    1.90526856   1.84621179   0.49697448   0.39050282   0.51629316  -2.42805525
 O    2.03337902   1.86491798   4.62017948  -0.82142398   0.83060877  -1.27449050
 O    1.83354590   1.83711623   8.69275194   1.05249256  -0.01034825  -0.07278463
 O    1.96802443   5.78235429   0.44952127  -0.10153758  -0.41058028  -0.83838862
 O    1.78898116   5.89317499   4.56604343   1.06731028  -0.39815096  -1.05912651
 O    1.99361374   5.86189656   8.72978190  -0.53876780   0.24263298  -2.04873926
 O    1.85058983   9.81131366   0.47830988   0.22828065  -0.58653134  -0.62444713
 O    1.99838979   9.63464671   4.50352888  -0.36261478  -0.26906340   0.38711780
 O    2.04382078   9.68891573   8.61824317  -0.30139895  -0.21859096   1.14558734
 O    5.86311398   1.71770332   0.48072868  -0.34528573   0.79407157   0.65465771
 O    5.81046040   2.05951852   4.56633019   0.52422668  -1.00578272  -0.67935391
 O    5.89336229   1.83504427   8.75673772  -1.24611073   0.77204476   1.34784588
 O    6.01289225   5.69171473   0.39906328  -1.13468589   0.87863135   0.45934923
 O    5.96589266   5.92872611   4.59677705  -0.46607976  -0.16960249  -0.61423937
 O    5.76262968   5.84375226   8.72311152   0.22922459   0.19131319   1.38973502
 O    5.88005257   9.90032609   0.36301829  -0.95157403  -1.30407764   1.28475094
 O    6.03313193   9.59193152   4.51048602  -0.66472059   0.59576442   2.57523140
 O    5.81928672   9.62619498   8.72812366  -0.41117299   0.35551984   0.78620831
 O    9.68707789   1.87897688   0.29308528   0.60450578   0.07948004   0.97809664
 O    9.79004386   1.82921468   4.56489637  -0.11257514   0.21603134   0.77924069
 O    9.75432886   2.01844217   8.67111996  -0.41747326  -0.56586995   1.36881460
 O    9.71661212   5.93487176   0.35704612  -0.45691254  -0.85177945   2.01974044
 O    9.64567376   5.79969088   4.64516536   0.96033734   0.13199842  -0.89838830
 O    9.90141475   5.86510400   8.68959754  -0.16718775  -0.32287696  -0.16626576
 O    9.84984982   9.72728800   0.37559850  -0.33802395  -0.06450427  -0.16879026
 O    9.73754245   9.68909132   4.64404324  -0.04752206   0.63353094   0.49905632
 O    9.68527516   9.78804214   8.60876749  -0.07440470  -1.10752666   3.35141196
 O    3.86679616   1.94005879   2.59735870   0.02838416  -0.41334625  -0.26938390
 O    3.96681222   2.01322129   6.69095220  -0.61421742  -0.71167190   0.84411814
 O    3.83133868   1.86565546  10.92463615   0.61560041  -0.16075577  -0.60940550
 O    3.86464225   5.85745999   2.56000457   0.41079102   0.40585178  -0.10532214
 O    3.93381301   5.82284534   6.64839892  -0.20153851   0.75515476  -0.35819361
 O    3.84048107   5.96048449  10.82869489   0.77486342  -0.33826104   0.71344563
 O    3.95997592   9.66900382   2.48318922  -1.87054908  -0.53398662   0.14909038
 O    3.87776468   9.63559490   6.57612192   2.39510943  -0.03443418   0.41167789
 O    3.73701173   9.65715735  10.87648474   3.87875145   0.24602679  -0.29628848
 O    7.90597487   1.88987517   2.46663172  -3.23738798  -0.50621712   1.07967813
 O    7.70659828   1.88799050   6.76096002   3.06112520   0.98819025  -0.81578666
 O    7.74814287   1.94601715  10.80918247  -0.12107941   0.13519904   0.27348018
 O    7.68347893   5.75072468   2.61740724   3.45786683   0.48862464  -1.11067460
 O    7.88106450   5.94392050   6.77886407  -0.33362913  -0.43820050   0.06320470
 O    7.84070221   5.78310347  10.66607477  -0.67395367   0.01652560   0.49905632
 O    7.79898203   9.65870254   2.41978944   1.22644158   1.12047844   0.34214218
 O    7.81224493   9.67602742   6.70012865   1.68838994   0.23366332  -0.00601929
 O    7.78953529   9.70906175  10.90607130  -0.17602570  -0.25880734  -1.20598215
 O   11.68257629   1.88522789   2.53443270   0.67923098   0.25247195   0.93211123
 O    0.00359374   1.95959611   6.74500098  -0.09719983  -0.40885045  -1.30434984
 O   11.67103418   1.99501846  10.88223248   1.44659115  -0.87902209  -0.75922909
 O   11.64672082   5.84105988   2.54968106  -1.12200192  -0.89646090   0.08520956
 O    0.05241947   5.66363204   6.65732600  -0.96975482   1.06781518   0.00173422
 O    0.02802416   5.86249357  10.92872566  -0.45326847  -0.72602862  -1.15991771
 O   11.62260646   9.71758372   2.63208208   1.90276170  -0.25874588   0.11359372
 O    0.06974435   9.82221195   6.84927086  -0.94238924  -0.91710473  -1.60616149
 O   11.65056038   9.66244846  10.64122604  -0.77394582   0.42893669   0.40777479
 O    1.94053874   3.91550482   2.63250599  -0.51123538  -1.66088826  -0.18527634
 O    2.06340491   3.86104851   6.78860158  -0.67292631   0.65318253  -0.46701053
 O    2.04718040   3.83482707  10.66230943  -0.70179342   1.04956853   0.89706678
 O    1.72156630   7.75681702   2.49780172   2.06650735   0.87210716   0.17882240
 O    1.94170934   7.71046126   6.64646638  -0.62009621   0.84413131   0.35407099
 O    1.81131620   7.79157213  10.91939959   1.06265641   0.41716154  -0.72776723
 O    1.91430559  11.68581886   2.54363408   0.91496658  -1.22119062   0.85071696
 O    2.10185912  11.65589832   6.51014126  -0.67872168  -0.07159921   1.31992271
 O    1.88968787  11.63700484  10.71830322  -0.36229867   0.01970427   0.62886830
 O    5.76741743   3.85194124   2.65898802   0.33860788   0.50537854  -1.41261796
 O    5.90692954   3.98375080   6.65221412   0.53154992  -1.24211104   0.53218215
 O    5.73782467   3.92380438  10.87406594   0.18673836  -1.15977722  -0.28015364
 O    5.95975872   7.75916992   2.56982935  -1.37859209   0.06560627  -1.52459600
 O    5.94437704   7.80275136   6.81787644  -0.68698448  -0.20033992  -0.86845871
 O    5.86407388   7.73670611  10.99882075  -0.39570110   1.99661602  -0.47097949
 O    5.84914873  11.65999542   2.73436955   0.28300742  -0.16047478  -0.82318455
 O    5.93233156  11.69697467   6.68601487  -1.13935731  -2.13552498  -0.92660563
 O    5.83216332  11.57564198  10.77812468  -0.49185161   0.59345066  -0.09990434
 O    9.76498132   3.79370389   2.42462702   0.14966114   2.26151289   0.80110066
 O    9.68082688   3.86993336   6.67680102   0.17315874   1.10813693  -0.05889768
 O    9.80740386   3.85969061  10.71912611  -0.61695705   1.74483337   1.05517511
 O    9.76746299   7.72020065   2.54060436  -0.73444069   1.98657948   0.41939627
 O    9.83897494   7.78175080   6.79446154   0.52088995   0.48168776  -0.73794426
 O    9.67373305   7.73039657  10.84778340   0.67785677   2.35329932  -0.94011499
 O    9.82825225  11.63568206   2.45356525  -0.69968601   2.72346565   1.03409664
 O    9.69975548   0.02722816   6.75587308   0.70076606  -1.41486147  -1.13671427
 O    9.75381379   0.00114719  10.73482332  -0.12367854  -2.27293241  -0.19489139
