# total energy = -399028.45635924
CRSYTAL
PRIMVEC
 11.70600000   0.00000000   0.00000000
  0.00000000  11.70600000   0.00000000
  0.00000000   0.00000000  12.46800000
PRIMCOORD
135 1
Pb    3.83460466   3.91088095   4.16489800   0.26797819  -1.09365153   0.21325159
Pb    3.93606056   3.90683068   8.35666453   0.69483072  -0.28876675   0.17669112
Pb    3.87351540   3.99882813  12.39796724   0.46097689  -1.40196782   0.01478443
Pb    3.86036956   7.72684966   4.13392748   0.18401346   0.42757918   0.19090727
Pb    3.95002582   7.84249323   8.32818762   0.29716042  -0.74209989  -0.52791670
Pb    3.82034675   7.95982247   0.02021063  -0.77024340  -1.10114157   0.06964144
Pb    3.85875413  11.66066266   4.19629242  -0.64342992   0.60879785   0.04920223
Pb    4.00991371  11.63454658   8.18971801   0.04517308   0.58667245   0.38024945
Pb    3.68247348  11.64639305  12.45820015   0.35950282   1.09961841   0.95982780
Pb    7.66404697   3.95401756   4.10213408   1.62113970  -2.22504202  -0.08474261
Pb    7.88688238   3.96635569   8.31436061  -0.12076276  -1.35978050   1.42396745
Pb    7.80671969   3.86615233  12.44160524  -0.76458395  -0.39382746  -0.30772006
Pb    7.86743872   7.63580039   4.19376142  -0.04845230   1.87085861  -0.28885991
Pb    7.93519304   7.81585037   8.31791399  -1.29902183  -0.44479041   1.21113042
Pb    7.85353199   7.81720827  12.45507068  -0.57729128  -0.12719543   0.42716928
Pb    7.81339211  11.56351457   4.21097972  -0.21389905   0.98448714  -0.69016808
Pb    7.84011691  11.62930229   8.22859324  -0.67009685   1.93543217   1.84859347
Pb    7.67962765  11.61696416   0.05826296  -0.10229853   0.99216349  -0.00699628
Pb   11.59653719   3.95991739   4.13835362  -0.61067967  -0.97023372   0.05057634
Pb    0.09505272   4.00893041   8.35126589  -1.28311483  -1.90839261  -0.04499608
Pb   11.59122267   3.93205711  12.34156201   0.44955552  -1.66615441   1.52294951
Pb   11.66866957   7.78384617   4.19412299  -0.28798421  -0.04207552  -0.22961507
Pb    0.14477981   7.87223818   8.34332377   0.08359675  -0.77746327   0.08777030
Pb   11.68149934   7.81689221  12.46444662   0.43384882   0.14510536   0.69615359
Pb   11.62378876   0.14931003   4.33710601   0.90065749   0.27342336  -1.27587167
Pb    0.11567869  11.65623779   8.38950524  -0.76313066   1.34346360  -0.67852314
Pb   11.55803616  11.58761722  12.32027914   1.04689940   1.06883382   1.56089806
Ti    1.88466600   1.95225644   2.25219458  -0.70318713  -2.10395319  -0.29143577
Ti    1.94819446   1.93868919   6.43778946  -0.46270500  -0.06238431  -0.70996449
Ti    1.88521618   1.88172779  10.47214750   0.88558427  -0.10676088   1.20068723
Ti    1.88138832   5.78358342   2.22341844  -1.23193761   0.47580789  -0.41891534
Ti    2.00705223   5.78642798   6.34020242  -1.31360596  -0.60476404   0.55021911
Ti    1.92625742   5.75205916  10.49182200   0.48820743   1.49977606   4.65751315
Ti    1.92354163   9.71230432   2.34187691  -1.35324536   3.07022764  -2.67438327
Ti    2.02356940   9.66696698   6.29940713   0.00857068   1.08046480   1.50392166
Ti    1.88652725   9.71730278  10.47661104   0.44712406  -0.74169930   0.73338947
Ti    5.70859478   1.90776194   2.29865035   2.67919496   0.01805898  -0.64270794
Ti    5.87679830   2.01075133   6.36118607  -0.16450584  -1.16361438  -0.21654478
Ti    5.79689314   1.80004333  10.56928568  -1.21919804   2.16527083   1.35541132
Ti    5.79542989   5.89179368   2.18025422   1.86867402  -1.66834366  -1.61056609
Ti    5.94311279   5.85075245   6.38135929  -1.84447582   0.75601327   2.38396294
Ti    5.82223663   5.87549893  10.57275179   0.73213647  -2.14338764  -1.29754059
Ti    5.86872116   9.74038701   2.22784458   0.22072299   1.11402088  -1.74911302
Ti    6.00692219   9.66282305   6.35389229  -3.29714108   1.18526466  -0.18503356
Ti    5.79672926   9.71372074  10.54811502   0.69736000   0.42172410  -0.54856552
Ti    9.70807845   1.92285097   2.14014467  -0.83619572   2.56318800   0.06309232
Ti    9.70758680   1.98908352   6.38024964   1.04384377  -0.89760186  -0.03456686
Ti    9.66114910   1.87609721  10.49983892   0.30129671   1.02879849  -0.96774171
Ti    9.69917018   5.95346089   2.20487852   0.68867753  -3.36635865   2.29347704
Ti    9.79091011   5.88289712   6.43360021   2.48638724  -1.83396276  -0.01118847
Ti    9.78573605   5.85455690  10.53069722  -0.81333436  -1.91901746  -0.85377959
Ti    9.81668672   9.85477804   2.21162371  -0.32127012  -2.05540774  -0.73649634
Ti    9.79511256   9.73754245   6.47112889   1.39090046   2.06637728   0.08869258
Ti    9.66812587   9.67581671  10.44520415   0.50938260   1.27767897   0.97667105
 O    1.91622538   1.82913274   0.48582809   0.31245723   0.58972808  -1.02734520
 O    2.05183939   1.79312508   4.63052792  -0.64452455   1.34747412  -0.07006066
 O    1.83942231   1.86641635   8.69721548   1.17759763  -0.27134125  -0.76737408
 O    2.03250107   5.80836502   0.43452227  -0.82456009  -0.28946544   1.48334737
 O    1.81268581   5.84176224   4.56615564   1.29524421  -0.09918700  -1.32268436
 O    1.96015799   5.87010247   8.77390615   0.03875904   0.29604251  -3.54645940
 O    1.77532025   9.81010795   0.48951862   0.42516634  -0.80233222   0.19131251
 O    1.97616010   9.74430852   4.51182010   0.01438384  -0.76839884   0.59746033
 O    2.04659510   9.64208002   8.69308858   0.08951238  -0.02424012  -0.48851020
 O    5.80869279   1.72819190   0.52199776  -0.05883493   0.84092823  -0.97327538
 O    5.83883574   2.10774724   4.56249005   0.45319806  -1.36005532   0.90641476
 O    5.87676318   1.89854932   8.84501116  -1.15983676   0.13551458  -3.77170063
 O    6.01516322   5.69767309   0.35704612  -1.14055272   1.02444794   2.42315983
 O    6.00397228   5.89241410   4.61183839  -0.87844825   0.42159367  -0.90806834
 O    5.74969455   5.85695663   8.74656383   0.01724384   0.40231430   0.68872877
 O    5.87854249   9.89997491   0.34957778  -0.05643607  -1.30155111   3.17804122
 O    5.97659195   9.62351431   4.56017100  -0.26999975   0.02556765  -0.33269149
 O    5.83812167   9.71720913   8.71705207  -0.50669961  -0.53258400   1.27786063
 O    9.65625599   1.92485270   0.29691295   0.55675891   0.20395892   0.93785146
 O    9.74336033   1.88600048   4.54471068   0.19805726  -0.42688048   1.43485781
 O    9.72300360   2.02503265   8.70015793   0.04330523  -1.09604574   1.82167967
 O    9.76206652   5.88944078   0.46928305  -0.91036006  -0.37652307  -4.05507810
 O    9.69702799   5.82941241   4.64961643   0.41121570   0.35362910  -0.03973722
 O    9.99104759   5.81365613   8.75788477  -0.95040005   0.75517484  -1.51421580
 O    9.83573238   9.71136784   0.37710713  -0.15803591  -0.10094772   1.11261417
 O    9.69729722   9.71017382   4.70764250   0.44439448   0.64797145  -1.69041782
 O    9.62519997   9.78908397   8.65654487   0.52445117  -0.90441648   0.58999359
 O    3.85950332   1.89326991   2.61970135   0.33987875   0.52339846   0.02773361
 O    4.01722996   2.01944888   6.68812196  -0.50005733  -0.40683720   0.90294922
 O    3.81631988   1.80679769  10.91119565   0.66076226   0.47723323  -0.44941578
 O    3.92957543   5.77770701   2.55778526  -1.14116758   1.15193217  -0.06591972
 O    3.87296522   5.92556549   6.62093191   3.02913029  -0.38400378  -0.10947182
 O    3.79899500   5.95056951  10.89986224   1.76175477  -0.06178343  -0.13254745
 O    3.91115019   9.71964398   2.42588629   0.30955531  -0.88354874   0.99711958
 O    3.91374892   9.63959835   6.56438953   0.28939092  -0.32685038   0.42785866
 O    3.82623487   9.72432638  10.91855177   0.76412281  -0.79080838  -0.80757244
 O    7.83133741   1.90724687   2.47752875  -0.23178569  -0.27020004   0.49500808
 O    7.78315552   1.89797572   6.83595504  -0.13452709   0.89887815  -1.53939683
 O    7.69070153   1.99848344  10.77440922   2.79691141  -0.41144860   1.11045752
 O    7.79414745   5.81414779   2.66467343  -0.84120771   0.38611385  -1.67756180
 O    7.91729457   5.91938473   6.84155317  -1.31938651  -0.42132817  -0.74094005
 O    7.81369647   5.77181889  10.68352997  -0.26868620   0.27997714   0.67905880
 O    7.85332128   9.68253596   2.50098106   0.15349904   0.70854847   0.04735767
 O    7.82083713   9.79655240   6.72493997   1.73982035  -1.04348510  -0.48856144
 O    7.80210753   9.70323217  10.88194572  -0.78350466  -0.34322318  -0.43498536
 O    0.02667797   1.94441342   2.54213792  -1.22618501  -0.35415546   0.80905368
 O    0.04008134   2.03358973   6.74073692  -0.32259299  -1.55021266  -1.13715240
 O   11.70585953   1.96731036  10.87400360  -1.24970315  -1.01720944  -0.47763848
 O   11.59266251   5.78446137   2.51329944   3.10015049   0.45536868   0.30458990
 O    0.07230796   5.62466276   6.65851046  -1.61619759   1.81535879  -0.06782483
 O    0.02378659   5.87411762  10.94838769  -0.26983206  -0.49997349  -0.47629232
 O   11.66686684   9.72697193   2.68158004  -0.13346973  -0.19202518   0.07448108
 O    0.08130988   9.79330984   6.90166140  -0.20992580  -0.16749161  -2.02737136
 O   11.64599504   9.69277871  10.63236130  -0.69170522   0.14073152   0.35364774
 O    1.88199703   3.89452767   2.66001040   1.06930894   0.75113171  -0.75412213
 O    2.05236616   3.82873995   6.85657711   0.57927092   1.86326611  -1.08671580
 O    2.01909770   3.79380925  10.75924813  -0.38823789   2.77159063   0.33043703
 O    1.78193414   7.79211061   2.57441758   1.74293188  -1.90620801  -0.01967065
 O    1.93754200   7.68291704   6.64994495  -0.72376143   2.92259765   0.01635882
 O    1.77603432   7.80236506  10.96363606   1.84056312   0.34213787  -1.10715502
 O    1.95870645  11.67049570   2.56413148   0.14628849  -0.51542400   0.80681319
 O    2.13873302   0.01876472   6.58385208  -0.97205034  -2.70470206   1.18518082
 O    1.88996882  11.64050493  10.71082242  -0.54309706  -0.85332311   0.62843589
 O    5.82594743   3.87589172   2.60118637  -0.14064767   0.83554361  -0.91065817
 O    5.88587045   3.98801179   6.63899804   0.60942202  -0.74846269   0.73112103
 O    5.74688511   3.88724654  10.79922054  -0.59146551   0.57406796   0.95786213
 O    5.87435174   7.79385480   2.49197916  -0.34058210  -0.97487307  -0.33866302
 O    5.98363896   7.80839365   6.82246466  -0.47707952  -1.05601506  -0.89830521
 O    5.86990346   7.78281604  11.01189968  -0.52259263   0.32966380  -0.72818185
 O    5.92734481  11.65643680   2.66790264  -0.54402865  -0.49373645   0.10501879
 O    5.87640029  11.64714223   6.70166221  -0.18314242   0.46574666  -1.08079551
 O    5.81923990  11.59480471  10.80700057   0.29274466   0.34963256   0.07664239
 O    9.80391547   3.83839740   2.50861147  -0.87317076   0.45313751  -0.18020789
 O    9.78533805   3.82157588   6.69757271  -1.09560789   3.07207220   0.07394076
 O    9.84184291   3.89784047  10.68137300  -0.97513858  -0.43365318   1.89680821
 O    9.79230312   7.76296267   2.59181044  -0.42542253   1.85264591   0.11147475
 O    9.86684693   7.83727235   6.73879192  -0.08297258  -1.48560649   0.12025038
 O    9.64973575   7.72262379  10.81617702   0.81686045   2.39796483  -0.01275355
 O    9.90232781  11.70253502   2.46512309  -1.05049070  -0.51956495   0.53618927
 O    9.76219529   0.04392091   6.77988644   0.77367167  -1.46321093  -0.77388594
 O    9.68725348  11.62214992  10.83361975   0.03273162   0.92100355  -1.02462029
