# total energy = -399029.03868291
CRSYTAL
PRIMVEC
 11.70600000   0.00000000   0.00000000
  0.00000000  11.70600000   0.00000000
  0.00000000   0.00000000  12.46800000
PRIMCOORD
135 1
Pb    3.86275759   3.90474701   4.17323909  -0.06554850  -0.35074949  -0.25953950
Pb    3.92108858   3.89288883   8.33051914   1.40505830  -0.25662263   1.00065541
Pb    3.87939181   3.97950152  12.39953821   0.34830334  -1.25964318   0.67941413
Pb    3.87605560   7.72082107   4.13158350   0.38204795   0.31648787   0.01130479
Pb    3.96424861   7.85822609   8.34779978  -0.33566743  -0.32760361  -0.46862027
Pb    3.81725636   7.94829206   0.01362752   0.43751088  -0.75107030   0.63716199
Pb    3.85624905  11.66857592   4.19556928  -0.24323050   0.09716334   0.03106310
Pb    3.99291660  11.63394957   8.18995490   0.31114028   0.30210802   1.23295152
Pb    3.68895860  11.64332608  12.45460937   0.32829424   0.65979472   1.33343299
Pb    7.66603699   3.95385368   4.10371752   0.91752854  -1.40302112   0.19860166
Pb    7.88625026   3.94440694   8.31522090  -0.22617686  -0.87887618   1.11046237
Pb    7.79493175   3.85065358  12.45369920  -0.81050727  -0.10418928  -0.55288148
Pb    7.85714914   7.66163553   4.17938581   0.05944469   1.72653108   0.12340743
Pb    7.93358932   7.80255236   8.29631941  -0.89398139  -0.16244561   1.16388040
Pb    7.84239958   7.79058883  12.45387376  -0.89486494   0.40115034  -0.19748275
Pb    7.80595880  11.57050305   4.18734040   0.40179082   0.65731384  -0.43891915
Pb    7.80413267  11.65393171   8.22593755  -0.53904180   0.91246260   1.82068880
Pb    7.70925554  11.63592788   0.03852612  -0.14552315   0.29580743   0.22227999
Pb   11.63338768   3.93761746   4.13487505  -0.12342672  -0.31003295   0.70123662
Pb    0.08586351   3.99352531   8.34434615  -1.51125775  -0.60437809   0.02458889
Pb   11.59043837   3.94928834  12.35445392   0.53007513  -1.95952168   1.54723245
Pb   11.65976130   7.77342783   4.18145550   0.10359511   0.02485897   0.67242676
Pb    0.11496463   7.87649916   8.34207697   0.35438014  -1.25690765  -0.40897496
Pb   11.68880389   7.79850208   0.00115952  -0.02329250   0.70729028   0.56948371
Pb   11.63506164   0.14908762   4.31104789   0.24483941  -0.11053231  -1.24764775
Pb    0.10330545  11.64262372   8.38128883  -0.42380237   0.73078341  -0.67537064
Pb   11.57938790  11.59901887  12.31249910   0.61740368   0.81237083   1.70112423
Ti    1.88237162   1.94512749   2.25736880  -0.21704814  -0.91952713  -1.65352450
Ti    1.93899355   1.93866578   6.47342300   0.12396688  -0.45728462  -1.89923589
Ti    1.86572569   1.87266735  10.48725871   0.85839252   0.21266127   0.51800254
Ti    1.87808723   5.82643909   2.21944115   0.07893291  -0.40277854   1.98218142
Ti    2.02061948   5.75840381   6.36153517  -2.08953836   2.34093687  -0.96422543
Ti    1.90991584   5.77668859  10.56170514   1.70016352   1.56131135  -1.91042879
Ti    1.87656545   9.75143747   2.36414476   0.47053784   1.01869292  -2.54111656
Ti    2.02756114   9.72189153   6.29821020  -0.13969327  -1.08627474   2.49095493
Ti    1.87893006   9.69990766  10.52378995   0.83428206  -0.14411102   0.02486283
Ti    5.71916530   1.90944760   2.28224246   2.46913243   0.31634126   0.04813989
Ti    5.88668987   1.97845447   6.37618507  -0.30361661  -0.35035980   0.24352373
Ti    5.74017757   1.80267718  10.58606761   0.31210099   2.72799287  -1.68737714
Ti    5.78816047   5.87740701   2.15832301   0.93666180  -0.39635063   1.02887495
Ti    5.90515023   5.86080790   6.42181795  -0.66157339   0.03569691  -0.88522307
Ti    5.82718827   5.85181769  10.57909800   0.18836561  -0.51146659  -0.04674319
Ti    5.86310228   9.77254339   2.23234553  -0.91154819  -0.85231957   0.07655620
Ti    5.98155529   9.67433005   6.35306940  -1.77106733   0.50500395   1.10011829
Ti    5.83352122   9.75593258  10.55992222   0.85712314  -1.39353358  -0.77021128
Ti    9.68126000   1.97737752   2.14644101  -0.75755995  -0.12177151   1.63667149
Ti    9.72097846   1.96818831   6.38507476   1.28570593   0.76388369  -0.09359442
Ti    9.62376013   1.86044629  10.49311867   0.62731563   0.68591535   3.08797526
Ti    9.71160196   5.89973035   2.21491526   1.42146375  -0.82198183   1.19821533
Ti    9.79362590   5.88403261   6.41804015   2.04840512  -1.48776076   0.69098514
Ti    9.77625419   5.84354155  10.56053315  -1.14670715  -0.40384343  -2.28173525
Ti    9.81779879   9.79889360   2.18965510  -0.58193056   0.16708328   2.13132365
Ti    9.80789551   9.76966372   6.46965767   1.17211014   0.47090438  -1.02370870
Ti    9.67375646   9.69970866  10.43398295  -0.19264831   0.18487386   3.76921821
 O    1.93962567   1.83677675   0.43211594  -0.06235384   0.31142579   1.31399106
 O    2.04206488   1.77879694   4.63753494  -0.36823141   1.16438970   1.22422021
 O    1.89501410   1.88528642   8.67858829   0.76469007  -0.00963415   0.92155660
 O    2.06157878   5.82176839   0.46339816  -1.15284569  -0.01573797  -1.12517403
 O    1.89104577   5.78559685   4.52339040   0.99444742  -0.10778907   2.02645531
 O    1.92756849   5.88892571   8.69563205   0.29237741  -0.19129791   2.88798847
 O    1.71911975   9.77623078   0.50345784   0.41745548  -0.38710231  -0.36412233
 O    1.95446888   9.82081894   4.54150640   0.29413293  -0.69287956  -0.22542063
 O    2.05167550   9.59600521   8.75283523   0.08612091   0.45963431  -0.36537241
 O    5.75243375   1.77448913   0.52040185   0.21425088   0.65629139  -2.11873405
 O    5.88568315   2.09820685   4.58856064   0.10037729  -1.00786656   0.27746898
 O    5.81211094   1.96587052   8.80493900  -0.30735530  -0.72877710  -0.78834911
 O    5.97068042   5.74510580   0.40079633  -0.33640823   0.29863942  -1.11053182
 O    6.00561112   5.87247878   4.59624092  -0.56361139   0.29459207   1.01356140
 O    5.73852703   5.88591727   8.79614906  -0.01214204   0.15810118  -0.99673539
 O    5.87380156   9.84707549   0.45554332   0.70372522  -0.14111312  -0.52469281
 O    5.91014869   9.65715735   4.59900882   0.39570630  -0.21254938  -1.96059043
 O    5.83645942   9.78604041   8.75354591  -0.11167051  -0.78228002  -0.44792054
 O    9.65002840   1.97865347   0.34123669   0.44192090   0.25030275   0.55718734
 O    9.70526901   1.92602330   4.58332408   0.29588460  -0.35248186   0.79469214
 O    9.69496773   1.98737444   8.78572582   0.71045408  -0.67327945  -2.92360050
 O    9.76894965   5.82851105   0.43864918  -0.76207801   0.20643013  -1.82634892
 O    9.76549638   5.87291191   4.64282137  -0.18104643   0.24175664  -1.17881199
 O   10.03804718   5.79299504   8.77147489  -1.54028367   0.99584027   0.17286300
 O    9.81545759   9.69144422   0.41499738   0.13794933  -0.05753097  -0.58700421
 O    9.67738532   9.75908149   4.70766744   0.96718088   0.56435990  -1.16285795
 O    9.58751836   9.75364991   8.71670297   0.84809474   0.02439211  -3.85790488
 O    3.86560214   1.86790301   2.64113384   0.23469982   0.86740163  -0.10022296
 O    4.04029078   2.00701711   6.72193518  -1.41453040  -0.23754338   0.15967922
 O    3.82636363   1.76945555  10.87785622  -0.39370770   1.01510471  -0.37229419
 O    3.94794215   5.74536333   2.55320951  -1.48884108   0.78113410   0.03857519
 O    3.92413214   6.01151095   6.58880188   1.04377567  -1.14916874   0.23348446
 O    3.82528668   5.93673302  10.96477064   0.26810105  -0.09489080  -0.82410775
 O    3.87077620   9.73427648   2.41103690   1.17202525  -0.30716624   1.28613420
 O    3.96702293   9.63097103   6.57258101  -0.71274976  -0.13855122   0.65134121
 O    3.94555412   9.76022868  10.92878800  -3.00906164  -0.68115036  -0.37859863
 O    7.74429160   1.91373200   2.50994555   2.21583951   0.31343982  -0.15793141
 O    7.86069606   1.94402713   6.84601672  -1.60502965  -0.01385512  -1.31997913
 O    7.73435320   2.03240743  10.78514417   0.49479106  -0.78027371   1.06093349
 O    7.87907448   5.89153615   2.64080968  -1.91360030  -0.22456409  -1.40188292
 O    7.90083593   5.87773478   6.87334657  -0.86725501  -0.15678550  -0.86764856
 O    7.77840288   5.77266172  10.72971144   0.87751421   0.43788513   0.62026653
 O    7.91251852   9.73694545   2.58197318  -1.14764471   0.19339682  -0.53766824
 O    7.89128384   9.87199757   6.72972768  -1.65215867  -1.62378480  -0.53194640
 O    7.78203174   9.68524004  10.84116289  -0.65788487   0.27094847   0.87232866
 O    0.03033025   1.98843969   2.58264646  -1.19639808  -0.61813676   0.04187017
 O    0.06284951   2.04335254   6.68916928  -0.25946619  -1.42937324  -0.27131500
 O   11.69847304   1.89885367  10.84416768  -0.85859315  -0.22957987  -0.32994173
 O   11.65012726   5.74796206   2.48851306   1.23985015   1.52396696   0.05827562
 O    0.03350257   5.66180590   6.65594206   0.93969056   1.44940935  -0.24561879
 O    0.01083976   5.86536154  10.94583175   0.53795762   0.17630074  -0.03566218
 O    0.00403857   9.72854054   2.73216271  -1.06908220   0.11393532  -0.38597569
 O    0.08181323   9.75921026   6.86973085   0.16981109   0.93242540  -1.03451963
 O   11.61855618   9.72955896  10.64024107   1.12147007   0.01652120   0.57184112
 O    1.86799666   3.89054763   2.65511047   1.77363309  -0.47599347  -0.99746075
 O    2.06147342   3.86884471   6.87465571   0.49320916   0.61370358  -1.87193848
 O    1.97333895   3.85902337  10.86717114  -0.28742722   0.58175307  -0.71925484
 O    1.91397782   7.76000105   2.64738031   0.27962190  -0.75911098  -0.61229530
 O    1.90510468   7.76517510   6.65301208  -0.01029778   0.36615951  -0.49366444
 O    1.81599860   7.82313151  10.96240172   1.07924879  -0.84945286  -0.55283133
 O    2.00816430  11.63891291   2.61596095  -0.81863669   1.64048734  -0.19306501
 O    2.13196696  11.69239763   6.70441764  -1.29881254  -0.83832941   0.09775365
 O    1.86893314  11.61656616  10.73060914  -0.08418019   0.56887410   0.51087627
 O    5.87951409   3.92654358   2.50661659  -0.10942884  -1.10265319   0.19009027
 O    5.89102109   3.95919161   6.65756290   0.40263193  -0.28050159   0.81226665
 O    5.73328274   3.86941830  10.76544473  -0.46243543   0.67561757   1.58773293
 O    5.77651300   7.79184137   2.40033936   1.02095774  -0.38142290   0.85173697
 O    6.00269633   7.77748981   6.78997306   0.07442257   0.45980022  -0.27476431
 O    5.85440472   7.84141628  10.99546686  -0.21171213  -1.70963562  -0.36731699
 O    5.98093487  11.63952163   2.60563745  -1.23097608   1.06851503   0.65814337
 O    5.81448726  11.61363966   6.67196344   1.05554346   1.98382119  -0.59956680
 O    5.81905260  11.63512017  10.84045222   0.99490656   1.23953762   0.62653625
 O    9.80592890   3.90685409   2.58389326  -1.33244912  -0.36816967  -1.02910645
 O    9.84318910   3.88667294   6.72075072  -1.49734861  -0.24589273   0.14967081
 O    9.83514708   3.92337125  10.72262962  -0.76825127  -1.04470166   1.47803786
 O    9.79949060   7.87134852   2.64375212   0.21203237  -2.14740500  -0.99803178
 O    9.89083252   7.83613687   6.68805962  -0.64303816  -1.18522832   0.73513942
 O    9.66124274   7.80300889  10.78347346   0.71166172  -1.55277296   0.68910230
 O    9.92982521   0.05479579   2.49949736  -1.20351276  -0.74774060  -0.13064944
 O    9.85559746   0.00707042   6.77114638   0.29703437   1.08058376   0.01065274
 O    9.62401766  11.57589952  10.89061098   0.41052985   3.18680923  -0.78548240
