# total energy = -399029.13936503
CRSYTAL
PRIMVEC
 11.70600000   0.00000000   0.00000000
  0.00000000  11.70600000   0.00000000
  0.00000000   0.00000000  12.46800000
PRIMCOORD
135 1
Pb    3.88977503   3.89759464   4.18047053  -0.26507045   0.21167388  -0.50601171
Pb    3.91123213   3.87844363   8.30821388   1.82296000  -0.32195018   1.11028395
Pb    3.88607594   3.95697918  12.40342823  -0.24142048  -0.41753510   1.45686026
Pb    3.89259618   7.71604502   4.12942654   0.98345711   0.28954572   0.17834206
Pb    3.97698473   7.87201576   8.36509290  -0.41659442  -0.55065380  -0.27363413
Pb    3.81560582   7.93440874   0.00930113   1.25257867  -1.15292045   1.02128818
Pb    3.85308843  11.67662965   4.19503315   0.36609974  -0.20769820   0.15247796
Pb    3.97754662  11.63458169   8.19424390   0.43404570   0.63623741   1.73648454
Pb    3.69646215  11.64268225  12.45539485   0.77621150   0.52265100   1.07056709
Pb    7.67091839   3.94905422   4.10609891  -0.03902467  -0.53836292   0.94829275
Pb    7.88484554   3.92043305   8.31958470  -0.51481944  -0.37313705   0.45857866
Pb    7.78087285   3.83540066  12.46373594  -0.59749228   0.46009617  -0.35951059
Pb    7.84726928   7.69217648   4.16584556  -0.28013011   1.22324915   0.37488528
Pb    7.92907081   7.78910216   8.27917591  -0.69263349  -0.22798037   0.51773908
Pb    7.82873868   7.76591258  12.45231526  -1.02001472  -0.06188482   0.06246165
Pb    7.80007069  11.57954008   4.16325222   0.75273902   0.58904840   0.30408624
Pb    7.76784407  11.68086722   8.22929144   0.30115329   0.35198519   1.10354837
Pb    7.73718605  11.65537155   0.02042258  -0.38034741   0.25924892   0.88893710
Pb   11.66859933   3.91493123   4.13362825   0.36244797  -0.11764639   0.63192007
Pb    0.07210896   3.97646967   8.33778798  -1.18506754  -0.03176994   0.12851739
Pb   11.59146850   3.95967156  12.37193406   0.62819730  -1.35122965   1.39218004
Pb   11.65149686   7.76350114   4.17151850   0.41675860   0.26938779   1.41356263
Pb    0.08725652   7.87663963   8.33955844   0.47979708  -1.13092110  -0.63548309
Pb   11.69581578   7.78279263   0.00753067  -0.41619508   0.09069963   0.23513305
Pb   11.64670911   0.14850232   4.28199745  -0.52181682  -0.53586925  -0.63521686
Pb    0.08983184  11.63206490   8.37127703  -0.43580725   0.56133401  -0.25994999
Pb   11.60201560  11.61278512  12.31069124   0.18942161   0.84184127   1.80754093
Ti    1.87688151   1.92625742   2.24123521   0.10643373   1.22667907  -0.84904275
Ti    1.93301178   1.93260207   6.48292362   1.45021342  -0.48351984  -0.94235142
Ti    1.85824556   1.86701335  10.50947669  -0.00030616   0.67563036  -0.06183158
Ti    1.87921100   5.86148685   2.23798106   3.28368946  -1.43492303   0.05267775
Ti    2.00570604   5.76314474   6.37054954  -0.92898231   3.70831067  -0.49361878
Ti    1.91732574   5.82203763  10.60915835   1.80615211   0.73931666  -2.62992090
Ti    1.83819318   9.80424324   2.35090374   2.14621914  -0.97978759  -0.83282056
Ti    2.02882539   9.75977215   6.32940514  -0.69751878  -2.53271642   0.77951717
Ti    1.88425629   9.68086200  10.56872462   1.44706749   0.31676759  -1.38660255
Ti    5.76262968   1.91487919   2.26341578   0.46889058   0.15419513  -1.69094171
Ti    5.89162980   1.94286823   6.39458784  -0.62809969   0.94376687   0.80397914
Ti    5.68897553   1.84398765  10.58130484   1.33332135   2.63873306  -2.97103953
Ti    5.79362717   5.85798676   2.15005673  -0.70059816   0.90703177   1.61925524
Ti    5.86052696   5.87011417   6.45135464   1.48927359  -1.14228018  -1.70816226
Ti    5.83421187   5.82139380  10.58292568  -0.65001917   0.95484198   0.02843321
Ti    5.84555498   9.79220947   2.24179627  -1.19471833  -2.08792396   3.02637957
Ti    5.93119608   9.69249776   6.36280691  -0.33870039  -0.35775348  -1.20309122
Ti    5.87757089   9.77838469  10.56139344  -1.41451218  -1.92732603  -0.11974516
Ti    9.64593130   2.02807621   2.17506754   0.55571658  -2.86170834   2.16058660
Ti    9.75077023   1.95675155   6.39181994   0.38289876   0.82096895   1.98768891
Ti    9.59902535   1.85713349  10.52092231   2.22343429   1.59631965   0.30484055
Ti    9.74052748   5.83469182   2.24059934  -0.10329667   0.64914949  -2.21214620
Ti    9.82307819   5.86470600   6.41039726  -0.37768068  -0.34611485  -0.41213953
Ti    9.75185889   5.82512801  10.56038353  -0.54500088  -0.13500893  -0.66447982
Ti    9.80999089   9.74746914   2.19707356  -1.21274200   1.95510698   2.92448503
Ti    9.83609527   9.80770822   6.45393552   0.20664659  -0.89987909  -1.90971945
Ti    9.67702243   9.72594181  10.46530256  -0.26989806  -0.64466354  -0.67287489
 O    1.95965464   1.85660672   0.42655522  -0.38390599  -0.21264117   0.87764901
 O    2.01709598   1.81399688   4.68790566   0.00102054   0.61951382   0.02180412
 O    1.97884077   1.90360631   8.69555724  -0.31418961   0.38802810   1.40940503
 O    2.04071869   5.83486741   0.45586748  -1.13225224   0.45113314  -0.69584154
 O    2.00612746   5.72725415   4.55527108  -0.14262750   0.03921103   1.60942697
 O    1.90810141   5.90099460   8.71767547   0.37855036  -0.13830573   2.40162105
 O    1.68363886   9.72767429   0.50443034   0.57618068   0.24363018  -0.13912216
 O    1.94626297   9.86525491   4.56270200   0.53930359  -0.45381317  -0.46214169
 O    2.05915564   9.57050954   8.79541345  -0.23432993   0.71251188  -0.04727775
 O    5.70814996   1.84728874   0.44344936   0.60938382   0.38978964   0.43168071
 O    5.93536342   2.04718040   4.62112705  -0.24157578  -0.20859894  -1.30024689
 O    5.73780125   2.00109388   8.72937046   0.77796861  -1.16664453   2.28817220
 O    5.91217383   5.80478299   0.40311538   0.15522455  -0.22006451  -2.06788139
 O    5.98404867   5.86496353   4.61314753   0.03622927  -0.07094991   0.11960317
 O    5.72826086   5.92013391   8.80783158   0.24075047  -0.21291628  -0.96958216
 O    5.89714333   9.78819431   0.52666079   0.74028396   0.61083477  -4.43669865
 O    5.86206044   9.68161118   4.56835001   0.71914541  -0.13336275   0.14528535
 O    5.82978700   9.82057311   8.77328275   0.23404151  -0.50227120  -1.15296926
 O    9.66294011   2.03968856   0.40448686   0.29487473  -0.09353052  -0.52961288
 O    9.68150583   1.95069955   4.64591344   0.40651323   0.05775828  -1.71225774
 O    9.69547109   1.92155161   8.77041511   0.56314880  -0.17679350  -1.30430687
 O    9.74512794   5.77870202   0.33732174  -0.04399427   0.78314232   3.25496783
 O    9.82506821   5.92341159   4.59252546  -0.44228991  -0.34362118  -0.58994470
 O   10.02071059   5.81293036   8.78312000  -1.16118684   0.40445884  -0.26762180
 O    9.80075485   9.67079484   0.42684198   0.16680106   0.24437118  -1.62567578
 O    9.69857318   9.82869707   4.66169792   1.07692995  -0.00785374   0.48733578
 O    9.58877090   9.71910550   8.65609602   1.19285917   0.61393633   1.49687441
 O    3.88336015   1.87871935   2.65673131   0.48554318   0.59692876  -0.38039621
 O    4.00386171   1.98413188   6.76086028  -1.61548810  -0.22966205  -0.68197103
 O    3.82044040   1.77466472  10.83125083  -0.90533234   0.84316354   0.11004113
 O    3.91175890   5.74587839   2.55076578   0.65051613  -0.06375730   0.19252761
 O    4.01007760   6.04778784   6.56958869  -3.06141081  -1.06352978   0.91915848
 O    3.86619915   5.91960714  10.99360913  -0.35572127  -0.07314629  -0.98010706
 O    3.87469771   9.73672303   2.44896456   0.14911017   0.63954751   0.71499668
 O    3.99164065   9.61829343   6.60799013  -0.65193158   0.45968795   0.68803217
 O    3.94823480   9.76807170  10.92220489  -2.36631027   0.09247005   0.09149831
 O    7.74560267   1.93218065   2.53543014   1.73589440   0.50856307  -0.47519576
 O    7.87305760   1.98813533   6.80075788  -1.15698043  -0.81877257  -0.52674648
 O    7.79445181   2.03401115  10.84006571  -2.62623363  -0.54527599   0.53314484
 O    7.88746768   5.95746434   2.55807203  -0.73935216  -0.55469160  -0.75865816
 O    7.85451529   5.83158973   6.86804767   1.21829730   0.28119059  -0.59992827
 O    7.77768881   5.79127426  10.79889637   0.82397290   0.30458320  -0.02381858
 O    7.92463423   9.79594369   2.63594716  -1.29809931  -0.76135595  -1.28002239
 O    7.89987604   9.87941917   6.71167402  -2.02477455  -0.95815208  -0.42983485
 O    7.74437354   9.67919975  10.83461719   1.62037783   0.75998931   0.90208879
 O   11.69283075   2.00666593   2.62447660   0.10024392  -0.26650364  -0.45635122
 O    0.07286985   1.99549841   6.62867454  -0.37156630  -0.15949308   0.77718323
 O   11.65861411   1.82349044  10.80237494   0.67235131   0.70149890   0.06805245
 O    0.04266837   5.77229884   2.47018510  -2.96772055   1.02317397   0.46357045
 O    0.03118478   5.75710445   6.64509490   1.91292307   0.30290596   0.07301761
 O    0.01521780   5.86344175  10.93997179  -0.16760862   0.54377623  -0.07646971
 O    0.00554864   9.73422965   2.76353220  -0.36804765   0.21283641  -1.01431300
 O    0.08531333   9.76173875   6.79449894  -0.53831855   0.76803385   0.02576649
 O   11.62768686   9.76570709  10.67153575   0.03815499  -0.11019199   0.53981830
 O    1.92447811   3.86769752   2.61114830   0.78191766  -1.30365905  -0.28867161
 O    2.08822163   3.93150692   6.81638028  -0.43268350  -1.22067117  -1.31340745
 O    1.91800469   3.94391528  10.94165497   0.04922566  -2.35178307  -1.38255144
 O    2.05036443   7.70313330   2.69169158  -1.77858414   2.10232692  -1.09199405
 O    1.87327606   7.86142183   6.63820009   0.68790349  -1.98002153  -0.17010229
 O    1.89881855   7.81293558  10.93777742  -0.27725484  -0.42926690   0.14482833
 O    2.02170814  11.66923145   2.65711782  -1.36523327   1.17127691  -1.23335696
 O    2.07214930  11.62820192   6.82645442  -0.90798132   1.83593865  -0.67578122
 O    1.84553284  11.61504438  10.77252655   0.50745379   1.21015958   0.53865133
 O    5.92675951   3.93167081   2.42298125  -0.01972310  -1.83028573   1.08113192
 O    5.91183436   3.91918051   6.70874404  -0.20453008   0.21217971   0.44417570
 O    5.70290567   3.87734326  10.79609107   0.36239473  -0.26925467   0.82256189
 O    5.72342629   7.77329906   2.34718828   1.57720444   0.28089773   1.57486163
 O    6.02353301   7.76940097   6.74659688   0.32845059   2.14628569   0.25675524
 O    5.83060642   7.83693288  10.96263862   0.15222061  -0.56440895  -0.27282657
 O    5.98216400  11.66662102   2.57116343  -1.18067034   1.59770847   0.44751243
 O    5.79630784  11.65671774   6.61903678   1.21321678   0.78037798   0.25840142
 O    5.85830282   0.00790155  10.89568546   0.73031814  -0.79472769   0.15227829
 O    9.75615499   3.95984715   2.61587368  -0.37069662  -0.51933202  -0.83414283
 O    9.83975924   3.94598725   6.74884112  -0.53996917  -1.85881655   0.01111060
 O    9.79656410   3.90630391  10.82166294  -0.25853010  -0.59336574  -0.12582405
 O    9.81373681   7.89452640   2.65403822   0.35852998  -2.94753599  -1.30943621
 O    9.88762508   7.78939481   6.66819810  -0.80211554   0.55653302   0.62788670
 O    9.70156991   7.83288260  10.77863587   0.22674685  -1.05485073   0.58216195
 O    9.90537137   0.08010416   2.52792440  -1.06636955  -0.41161151  -0.50555913
 O    9.95570717   0.00963404   6.75986284  -0.89045904   1.38026631  -0.05974612
 O    9.58045964  11.64674423  10.91100863   0.71658074   0.06423207  -0.58783706
