# total energy = -399029.17746098
CRSYTAL
PRIMVEC
 11.70600000   0.00000000   0.00000000
  0.00000000  11.70600000   0.00000000
  0.00000000   0.00000000  12.46800000
PRIMCOORD
135 1
Pb    3.91538776   3.89072322   4.18588164  -0.58674991  -0.63765637  -0.43917223
Pb    3.90724039   3.86334289   8.28997320   0.78033986   0.04058286   0.91416924
Pb    3.89181188   3.93330965  12.41198128  -0.92454234  -0.33458738   1.58781745
Pb    3.91187596   7.71242786   4.12812986   0.72809074   0.56169422   0.79037884
Pb    3.98812885   7.88353447   8.38117662  -0.22555691  -0.94650126   0.22383064
Pb    3.81813431   7.91707216   0.00834109   1.70477701  -1.19568458   1.00314649
Pb    3.85114523  11.68416831   4.19490847   0.53620851   0.52106186  -0.11077530
Pb    3.96372184  11.63728578   8.20423076  -0.00613167   0.87175183   1.88130223
Pb    3.70645907  11.64399332  12.45965891   1.31569142   0.93341191   0.52891671
Pb    7.67578808   3.94229986   4.11147262  -0.11705856  -0.53448533   1.16090856
Pb    7.88173174   3.89570998   8.32531998  -0.57027608  -0.10895931  -0.11016894
Pb    7.76508145   3.82177488   0.00452588  -0.18781096   0.38401196   0.26807022
Pb    7.83672217   7.72601853   4.15361446  -0.15859117   0.21099497  -0.04455205
Pb    7.92233986   7.77533591   8.26426418  -0.48373974   0.19074686   0.25970183
Pb    7.81213957   7.74173969  12.45111833  -0.64001685   0.05500249   0.81441362
Pb    7.79669936  11.59073102   4.14057293   0.54297747   1.34640854   0.78894337
Pb    7.73320601   0.00256361   8.23626106   0.73679016   0.05359796   0.57934674
Pb    7.76302120  11.67522493   0.00561060  -0.87520128   0.13845443   1.29473794
Pb   11.70426751   3.89213965   4.13452595   0.42896309  -0.33724794   0.38505763
Pb    0.05498308   3.95954279   8.33196542  -0.08796562  -0.16376690   0.33348603
Pb   11.59467594   3.96522020  12.39369072   0.91271521  -0.94780989   1.13731308
Pb   11.64474250   7.75462799   4.16636922   0.39522964   0.26208396   1.04884010
Pb    0.06159697   7.87303418   8.33509489   0.25089722  -0.79674872  -0.16379783
Pb   11.70116542   7.76790260   0.01456262  -1.07121667  -0.11159203   0.08850392
Pb   11.65647191   0.14628988   4.25117656  -0.91312048  -0.16746075  -0.39702088
Pb    0.07511740  11.62378876   8.36079144  -0.66015669   1.01775483   0.73889386
Pb   11.62484230  11.62907987  12.31506751  -0.21711117   0.76981826   1.89747288
Ti    1.87303024   1.92388110   2.21419212   0.39131614   1.94041931   0.79366123
Ti    1.94626297   1.92084925   6.47993130   1.11663185   0.40496235   0.68778632
Ti    1.85173702   1.87225764  10.53181934  -0.27503409   1.67231196   0.45283081
Ti    1.92111848   5.87575646   2.25644617   1.65770671  -1.65331679  -2.34115569
Ti    1.97850130   5.81775323   6.37518763   0.93793487   1.84800499   1.50090059
Ti    1.94894365   5.87444539  10.62089074   0.41689157  -1.91892135  -0.19427365
Ti    1.82887520   9.84399682   2.32490796   1.55223088  -1.20841507   0.28634767
Ti    2.02043219   9.76275718   6.37058694  -0.84516168  -1.80285895  -1.51696915
Ti    1.90874524   9.66763422  10.59479521   0.61723501   1.31906353  -1.19497923
Ti    5.81184170   1.92303827   2.22223398  -1.59702423   0.29189773  -2.05564332
Ti    5.88789559   1.92143455   6.41952384  -0.48082241   1.82793940  -1.88992431
Ti    5.65735762   1.91930405  10.53916300   1.60450165  -0.04359919   0.48206297
Ti    5.79272581   5.84946479   2.15929552   0.58186809   0.26778561  -2.06324758
Ti    5.83561659   5.86481135   6.45788788   1.57163443  -0.76098581  -0.59563186
Ti    5.83247938   5.80459569  10.58615489  -0.80047970   1.63822583  -0.67218490
Ti    5.81259089   9.78423769   2.28146945  -0.24711984  -0.87108360  -2.33655230
Ti    5.87788696   9.70621720   6.35767009   1.60306000  -0.24705178  -1.67624403
Ti    5.90292609   9.77398323  10.56115655  -1.75568656  -0.97834139   0.55204814
Ti    9.62063463   2.03913838   2.23142290   2.70096582  -3.09336784   0.29342600
Ti    9.78566582   1.95691543   6.42202991  -0.43513189   0.29026117   0.36737417
Ti    9.60367264   1.87654204  10.55360094   1.48492175   1.83426287  -2.76953099
Ti    9.76773223   5.78155828   2.23663452  -1.53907966   2.55742539  -2.55917331
Ti    9.84855045   5.84038093   6.39659519  -1.31352584   0.60220592  -1.79862371
Ti    9.72115405   5.80582482  10.55098266   0.91539124   0.53552481   1.02722458
Ti    9.78563070   9.72247683   2.24018790  -1.05840266   1.48934261  -1.10942668
Ti    9.86599239   9.83402330   6.41413766  -1.37360196  -0.62461033  -0.27191257
Ti    9.67774820   9.74188538  10.49263242   0.69556073  -1.48973860  -1.17538078
 O    1.96374003   1.86791471   0.45271308  -0.38225166  -0.42095975  -1.21498294
 O    1.99245485   1.87485637   4.73180549   0.25520053  -0.03236914  -2.38227376
 O    2.04762523   1.93753030   8.76294678  -1.23129590   0.53324477  -0.79352511
 O    1.97383060   5.86604048   0.42813865  -0.35456016   0.52112064   2.08267587
 O    2.11416213   5.67407379   4.63825808  -0.95014561   0.70803753  -2.83249970
 O    1.90502273   5.90696466   8.83132129   0.30966781  -0.03616509  -1.65596497
 O    1.67553831   9.68991074   0.50115126   1.06991114   0.62603961   0.43450387
 O    1.96148077   9.88833914   4.56943472   0.64402935  -0.34628766   0.78009236
 O    2.05643984   9.57484076   8.82815442  -0.51024328   0.51180558  -1.25763238
 O    5.68980665   1.93463891   0.38215667   0.61770215  -0.09758386   1.85171430
 O    5.97324403   1.98807680   4.61024249  -0.61466107   0.57685324   0.27895687
 O    5.69625666   1.98745639   8.73610318   1.15061280  -0.81975021   0.24542451
 O    5.85921589   5.85463884   0.33702251  -0.00920369  -0.39926070   1.95241040
 O    5.96201798   5.85611380   4.63549019   0.03711794  -0.04855217  -0.70295462
 O    5.72936123   5.94463457   8.78057653   0.64090783  -0.48904231   0.06694099
 O    5.94747913   9.75480880   0.44949634  -0.36760929   0.60545119   1.37173957
 O    5.84352985   9.69994278   4.53491083   0.31782893  -0.00242544   0.27584463
 O    5.83209308   9.83210352   8.75062840   0.20391664  -0.29102221   0.23961149
 O    9.68856455   2.09489405   0.44752639   0.17043686  -0.55763532  -0.61995744
 O    9.67606254   1.97661663   4.64763402   0.52325528   0.25895625  -0.75453550
 O    9.71828608   1.85205308   8.70216528  -0.20664217   0.80037142   2.17155103
 O    9.72000686   5.76185708   0.35850487   0.68461220   0.75010535   2.37041260
 O    9.86430673   5.95754629   4.52674429  -0.64257532  -0.96885927   2.19787822
 O    9.95396298   5.84959355   8.78015262  -0.52416482  -0.33468637  -1.16485300
 O    9.79329813   9.66147686   0.38765506   0.08985895   0.54660017   1.89565380
 O    9.76292106   9.89536274   4.62936840   0.34167809  -0.84232787   0.06129503
 O    9.63842775   9.71088789   8.63982528   0.69795214   0.82113618   2.32824578
 O    3.91973069   1.91388418   2.65685599   0.18425941  -0.04773853  -0.32373476
 O    3.90797786   1.95167114   6.77249292   0.76699992  -0.21364625  -0.68145975
 O    3.78485416   1.81546013  10.79190182   0.86836426   0.34931019   0.93703461
 O    3.89889401   5.74665099   2.55598987   1.39771717  -0.13900201   0.10701029
 O    3.98466387   6.03899663   6.58935047  -1.26835816  -0.40568008   1.25593395
 O    3.89335707   5.89944941  10.97998160  -0.26893027  -0.08545046  -0.82834445
 O    3.88906097   9.76426725   2.51615461  -0.10879225   0.86794042  -0.17595598
 O    3.98435951   9.62591404   6.67036753  -1.09677044   1.00009612   0.15423528
 O    3.85526575   9.77719067  10.91814032   0.59371997   0.24787470   0.16556123
 O    7.81235028   1.96983886   2.54226260  -1.38480726   0.02427609  -0.15212230
 O    7.83623052   1.99855367   6.73490190  -0.22659329  -0.81978115   0.60544191
 O    7.75824515   2.01226140  10.91358950  -1.04832655  -0.10618428  -0.74861110
 O    7.85606048   5.99896211   2.44778010  -1.06086213  -0.58833388   0.74137190
 O    7.85451529   5.79812227   6.83541892   1.31759712   0.52439685  -0.55046727
 O    7.80767959   5.82154598  10.86420376  -0.54028288  -0.11932622  -0.94674257
 O    7.88276187   9.82028046   2.63644588  -0.61228822  -1.64096683  -1.10242569
 O    7.83122035   9.84685308   6.67626490   0.50050129   0.22722440  -0.09564412
 O    7.76539751   9.70344287  10.86299436   0.86434557   0.43075124  -0.20956260
 O   11.65331129   2.01337347   2.64771695   1.09194121   0.17180118  -0.42177958
 O    0.06576431   1.94155716   6.60218004  -0.56560154   1.07154460   1.45531216
 O   11.63935774   1.77918323  10.76439742  -0.04025493   1.30237314   0.45125923
 O    0.03872345   5.83898792   2.47190568  -0.45998649  -0.11305225   0.76571295
 O    0.09473666   5.86412070   6.63821256  -1.33847635  -0.71103530   0.54512758
 O    0.01146017   5.88230012  10.93099483  -1.01193563   0.10578520  -0.12003158
 O   11.69729074   9.74800762   2.75163773   0.43372117   0.06793715  -1.16951517
 O    0.06756703   9.79429314   6.71942911  -0.60408379  -0.32380591   0.46210566
 O   11.64153506   9.79587345  10.72428786  -0.43316121  -0.35074875   0.14093247
 O    2.01284670   3.80395835   2.55584026  -0.51363395   1.56003623   0.50558420
 O    2.09730549   3.94733344   6.70750970  -0.91890875  -1.09568147   0.66351951
 O    1.86642805   3.93738334  10.95733972   0.48399033  -1.94785342  -1.18595806
 O    2.11198481   7.72519911   2.68871173  -2.27599666   1.51611529  -1.14363656
 O    1.87001009   7.88002267   6.61692968   0.80074885  -1.48440820   0.33784502
 O    1.97033051   7.78855198  10.91838968  -0.97525080   0.96010416   0.43386348
 O    1.98005819   0.03446246   2.64848996  -0.71075378  -1.57052070  -1.03048841
 O    1.97752970  11.63115184   6.91667287   0.41408869   0.99435426  -1.29159786
 O    1.84350770  11.65650703  10.83642505   0.76131065  -0.51916544   0.37526614
 O    5.97065701   3.87314081   2.38601363  -0.29757153   1.27622538   1.34346954
 O    5.92254535   3.89180017   6.77735544  -0.93417296   1.20883271  -0.14994125
 O    5.68799222   3.87802221  10.85890486   0.93276533  -0.01920555  -0.68946618
 O    5.73602194   7.76693100   2.36167609   0.97574270   0.71398667   1.64935997
 O    6.05380472   7.83754159   6.71265899  -0.50533670  -0.36379169   0.15789200
 O    5.81271965   7.80942378  10.91649455   0.17525372   1.03805554  -0.64329614
 O    5.93483665   0.03968334   2.55668808  -0.33816057  -1.77692466   0.14015286
 O    5.82716486   0.02350565   6.57826642   0.24832947  -1.31542536   1.01089615
 O    5.92387983   0.05526403  10.95281383  -0.73310869  -1.90327972  -1.15829440
 O    9.69102281   3.98366886   2.61405335   0.59825839  -1.63512596   0.13816981
 O    9.81352610   3.93473778   6.77663230   0.58407079  -0.45922544  -0.18003345
 O    9.74751596   3.86582456  10.91325287   0.26088052   0.43716753  -1.64777910
 O    9.84112885   7.80758594   2.61007606  -0.12186613   0.85571421  -0.72849601
 O    9.85114918   7.76309143   6.67450691  -0.46640278   1.12438461   0.09802626
 O    9.75073511   7.81719656  10.79766204  -0.32664900   0.03459350   0.05965228
 O    9.83646986   0.08127476   2.53586652  -0.48859372  -1.31863660  -0.30354851
 O   10.01447129   0.06039125   6.74456460  -2.11325378  -1.24471318  -0.50863456
 O    9.56855464   0.01618940  10.90551024   0.83900835  -2.26716731  -0.42151043
