# total energy = -399028.79922271
CRSYTAL
PRIMVEC
 11.70600000   0.00000000   0.00000000
  0.00000000  11.70600000   0.00000000
  0.00000000   0.00000000  12.46800000
PRIMCOORD
135 1
Pb    3.93923288   3.88177984   4.18999608  -0.78007231  -0.87927472  -0.18180965
Pb    3.90578884   3.84812509   8.27460016  -0.53090358   0.33613100   0.61219663
Pb    3.89463302   3.90809492  12.42607012  -1.04098105  -0.71122747   1.50997941
Pb    3.93356718   7.71053149   4.12925198  -0.31594737   0.51457123   0.49267552
Pb    3.99865254   7.89210326   8.39799595  -0.01426617  -0.81029117   0.08994474
Pb    3.82639875   7.89581406   0.01088456   1.65202412  -0.37840383   1.19520019
Pb    3.85105159  11.69347458   4.19435988   0.56314118   1.07875645  -0.49840681
Pb    3.94968634  11.64282272   8.22075086  -0.40110630   0.63537368   1.92281843
Pb    3.72100963  11.64835966  12.46590538   1.58735547   0.96293330   0.36306806
Pb    7.68037684   3.93360230   4.12072387   0.20633007  -0.64164889   0.86089079
Pb    7.87681522   3.87047184   8.33079343  -0.21381360   0.39208591  -0.51297596
Pb    7.74842381   3.80919093   0.01431326   0.12239041  -0.12549699   0.75614326
Pb    7.82548441   7.76104288   4.14112152  -0.19833182  -0.27725204  -0.47644538
Pb    7.91399348   7.76211983   8.25008807   0.01663169   0.65034804   0.09196347
Pb    7.79326950   7.71782433  12.45253968  -0.12448945   1.01888091   1.07080201
Pb    7.79501369  11.60638194   4.12026256  -0.09594982   1.33449973   0.76266671
Pb    7.70086234   0.03037707   8.24528789   0.87947915  -0.85738266   0.51106675
Pb    7.78635125  11.69572213  12.46283825  -0.71696972  -0.21946458   0.90449970
Pb    0.03572671   3.86811893   4.13700708   0.28348710   0.03556320   0.59100911
Pb    0.03716655   3.94197209   8.32714031   0.56716038  -0.24526634   0.13554317
Pb   11.60100889   3.96739752  12.41947454   0.86607816  -1.07862504   0.79637180
Pb   11.63931092   7.74662109   4.16448655   0.42842302   0.36777356  -0.16620375
Pb    0.03634713   7.86668953   8.32988327  -0.54543259  -0.53006397   0.07243693
Pb   11.70302668   7.75280186   0.02210576  -1.43770675   0.76436419   0.40769181
Pb   11.66342528   0.14331656   4.21883456  -0.72135762  -0.18685099   0.01642361
Pb    0.05797982  11.61867324   8.35259996  -0.98694631   1.01512454   1.33022134
Pb   11.64702517  11.64792653  12.32592714  -0.92508488   0.12594235   1.78294941
Ti    1.87521926   1.94790181   2.19693641   0.92443875   0.87876000   1.09541735
Ti    1.97369013   1.91486748   6.48132772  -0.85770755   1.20124908  -1.31557918
Ti    1.84152939   1.90055104  10.56010924  -0.10146938   1.33464940   0.09809266
Ti    1.98724568   5.86810074   2.24751908  -1.04111612  -0.15689861   0.51255616
Ti    1.96411462   5.89838416   6.39402678   2.02115202  -1.51471411  -1.36355409
Ti    1.98653161   5.90156819  10.62838400  -1.37864161  -2.76440901   0.56005285
Ti    1.84177522   9.86517297   2.30210399   0.31645844  -2.09361085   0.72753427
Ti    1.99971257   9.74012948   6.39292960  -0.67379887  -0.09002870  -1.32626785
Ti    1.94015244   9.67374475  10.60242563  -1.76720479   2.18332926  -1.56017747
Ti    5.84038093   1.93454527   2.15479457  -1.79639421  -0.28318776   1.25164792
Ti    5.87761772   1.92477076   6.41883810   0.10341875   1.10647107  -2.93950538
Ti    5.64967849   1.99451510  10.50389102   2.18604889  -2.96357315   3.35373159
Ti    5.80118924   5.84551987   2.14425911   2.33811059  -0.04884008  -1.28584583
Ti    5.83297103   5.84851660   6.45418488   0.78512826   0.09449327  -0.32491666
Ti    5.82027002   5.81130323  10.57949698   0.17187663   1.72704561  -1.39310491
Ti    5.77625546   9.76288594   2.29350107   1.17526480   0.16331620  -3.58095349
Ti    5.84616370   9.71734960   6.32918071   2.38817723   0.42969339  -0.73652546
Ti    5.90534923   9.75640082  10.56822590   0.06510307   0.95120423   0.46523834
Ti    9.63222357   2.00609234   2.29236648   2.49096079  -1.92652004  -1.88675146
Ti    9.81516494   1.96156271   6.45684056  -0.74844435  -0.13768967  -2.44858210
Ti    9.63024526   1.91884752  10.55109487   0.28587453  -0.84681080  -1.43122346
Ti    9.77419394   5.76267650   2.20221037  -1.46073777   2.34601027   2.40905811
Ti    9.85524628   5.82460124   6.35955276  -1.66046044   1.30747506  -0.23691399
Ti    9.70312681   5.79532454  10.55114474   1.80796996   1.83660085  -0.98637683
Ti    9.74633366   9.71923427   2.27059735  -0.10981078   0.67330970  -2.81893657
Ti    9.87589567   9.85025953   6.36920299  -2.78569509  -1.01920215   0.86365422
Ti    9.68827190   9.73799899  10.50536225   1.22985807  -0.89252970   0.62774778
 O    1.95133167   1.86334937   0.43464695  -0.25376471   0.04934020  -0.98773847
 O    1.97673369   1.93556369   4.68861634   0.02383413  -0.48718151  -0.81389422
 O    2.06537152   1.99361374   8.80056274  -1.39851495   0.16729890  -1.75593569
 O    1.89225149   5.91746494   0.47069194   0.80265797  -0.17609661  -0.35989578
 O    2.18145992   5.65256987   4.62478018  -1.52871744   1.52927597  -1.23231486
 O    1.91508989   5.91075740   8.88143018   0.13327986  -0.10116274  -2.98253021
 O    1.71371158   9.67815791   0.51017809   1.30762473   0.64546732  -0.63008410
 O    2.00315413   9.89626411   4.60586622   0.18584345  -0.25086621   0.72045230
 O    2.03165824   9.60160067   8.81193355  -0.63752382   0.22283765  -0.90044034
 O    5.69690049   2.01905088   0.38765506   0.17702749  -0.43729009  -0.51249410
 O    5.98473932   1.95270127   4.60859671  -0.83276367   1.00534849   1.17584158
 O    5.70325685   1.93810389   8.74935666   0.94094632  -0.20021183  -2.24758907
 O    5.80529805   5.88864477   0.33497776  -0.18399265  -0.25521396   0.88053780
 O    5.94018629   5.84554328   4.63512862  -0.25906159   0.10415615   0.35354755
 O    5.75757269   5.94840390   8.75468050   0.72687353  -0.54987525   0.84091524
 O    5.98251518   9.74530353   0.40939925  -1.42292586  -0.04435726   2.41536618
 O    5.83880062   9.71788808   4.51357808  -0.14127811   0.03271581   0.24987327
 O    5.84228901   9.83057003   8.73611564  -0.10583173  -0.20935999   1.15072247
 O    9.72185641   2.12678120   0.46747519   0.01210507  -0.83065368   0.37741819
 O    9.69344595   2.01208581   4.61875813   0.56682088  -0.10657278   1.20069785
 O    9.73323464   1.81618590   8.71328674  -0.71070180   1.47317504   1.37221673
 O    9.72178618   5.77572869   0.46378466   0.64254326   0.13221391  -3.65013782
 O    9.87545084   5.95150599   4.54469821  -0.80027784  -0.95828986   1.50222939
 O    9.86175482   5.87300555   8.73910796  -0.20181075  -0.74465148   0.94203417
 O    9.78944686   9.67425982   0.41919910  -0.06905291   0.37137661   2.29863040
 O    9.84217068   9.92709771   4.59812359  -0.61886610  -1.26227818  -0.66334018
 O    9.71908209   9.73620797   8.71217708   0.05702085   0.34842955  -0.78007231
 O    3.96128699   1.94861588   2.64176971  -0.89585531  -0.38280998  -0.43834873
 O    3.84492935   1.91031385   6.75584814   2.91540476   0.04670453  -0.27795659
 O    3.78322702   1.87317071  10.79172727   1.63323499   0.08379364   1.23508924
 O    3.93841346   5.74387667   2.56482968  -0.18123652   0.47633952  -0.25691509
 O    3.90841099   6.01064470   6.66336052   2.13881138  -0.14291354   1.03787812
 O    3.90629220   5.87526481  10.93103224  -0.77270559  -0.11340287  -0.27200627
 O    3.89713811   9.82696459   2.57753458  -0.58835155   0.16310447  -0.74766679
 O    3.93377789   9.67483341   6.73991404  -0.20876131   0.74233341  -0.50391907
 O    3.78659835   9.79551056  10.92184332   2.99460242  -0.15161634   0.28606436
 O    7.82704131   2.00814089   2.54129010  -2.15605636  -0.70579918  -0.06308799
 O    7.78954699   1.97586745   6.69414401   0.83151885  -0.04691626   1.40840416
 O    7.67692357   1.98635602  10.95702802   1.33179106   0.43326723  -1.44908902
 O    7.78278092   6.01457792   2.36660095  -0.02855788  -0.62892324   1.61172622
 O    7.90428920   5.78563197   6.77870198  -0.77256687   0.28731283  -0.34414021
 O    7.81635373   5.84680753  10.89192012  -1.34194311  -0.52539133  -0.95658507
 O    7.81470319   9.77760038   2.59205980   0.44383179  -1.17788951   0.08058485
 O    7.77867212   9.82204807   6.63632989   1.76239708   0.87820148   0.26600849
 O    7.81815646   9.74460117  10.88536195  -1.53389750  -0.51709373  -0.62659422
 O   11.65861411   2.02555942   2.65095863   1.18859643   0.06830821  -0.71019073
 O    0.03611301   1.93083446   6.63724006  -0.12112369   1.25967538   1.39665320
 O   11.61962143   1.78988252  10.74479772  -0.40251905   1.27556236   0.54798794
 O    0.01201036   5.90084242   2.50566902   1.94446956  -1.29911176   0.51890438
 O    0.10815173   5.94204754   6.65429628  -2.43651719  -1.34101223   0.68532351
 O   11.67664135   5.90408498  10.91713042   0.07668976  -0.82979581  -0.02481247
 O   11.69847304   9.76509838   2.69135495   0.32831163  -0.07333860  -0.41927486
 O    0.02931182   9.81436893   6.66405872   0.78888097  -1.04451839   0.83825767
 O   11.64303343   9.81083372  10.78490728   0.74954315  -0.59143987  -0.02799206
 O    2.08193551   3.80169909   2.51812456  -1.17903212   2.68073218   0.27639783
 O    2.06730301   3.91912198   6.62503388  -0.92623479   0.14902448   2.11183051
 O    1.83450579   3.85416538  10.92368858   0.60012077   1.03795843  -0.18771616
 O    2.08135021   7.80872142   2.63840335  -0.76301716  -0.74490336  -0.33859144
 O    1.90043398   7.83837272   6.60906238   0.43458872   0.39413384   0.48796272
 O    2.00198353   7.79618429  10.91678131  -0.95996179  -0.01031997   0.37275285
 O    1.90825359   0.05049968   2.59601215   0.44401066  -0.96832874  -0.26205500
 O    1.89943897  11.67577511   6.95082272   1.45714568  -0.59537512  -1.77821471
 O    1.87303024  11.68113646  10.91539736   0.46616192  -0.99637191  -0.35739883
 O    6.00101066   3.86232446   2.40593749  -0.79636450   2.38642134   0.94785672
 O    5.89491919   3.91278903   6.84008195  -0.88400578   0.90856271  -0.77074162
 O    5.71127546   3.88203737  10.89539869   0.72860752   1.11208920  -1.29133984
 O    5.78938960   7.78904363   2.44658317  -0.29619815   0.31423894   0.99380560
 O    6.06161263   7.89064001   6.68596500  -1.44616132  -2.77383826   0.12294164
 O    5.80130630   7.81862470  10.84482848  -0.10024646   0.38741692  -0.16746682
 O    5.87192860   0.05429243   2.54897039   0.52128816  -1.99465302  -0.02099404
 O    5.86896698   0.04606311   6.57962543  -0.81689858  -1.61462107   1.10312356
 O    5.95810817   0.02612779  10.96287551  -2.01482205  -0.93853334  -1.48680967
 O    9.64950163   3.94617454   2.61528768   0.98563943  -0.31442876   0.38204703
 O    9.80880858   3.90077867   6.79760347   0.68524685   0.51301977  -0.16285623
 O    9.70848816   3.84439087  10.93817640   0.52061282   1.36691255  -1.77024201
 O    9.86246888   7.74800240   2.53637771  -0.79690113   2.37636786   0.57036552
 O    9.79470285   7.78378764   6.68598994   0.15190838   0.91565929  -0.24209405
 O    9.78623941   7.79545852  10.82193724  -0.78372281  -0.53188192   0.09150716
 O    9.74576006   0.03126673   2.53090426   0.25085161  -0.41370419   0.04142226
 O    9.98457417   0.06586966   6.70992850  -2.17252378  -1.63787112  -0.14999551
 O    9.59215393   0.00980963  10.88185844   0.55891754  -0.40460349  -0.04403967
