# total energy = -399029.46590167
CRSYTAL
PRIMVEC
 11.70600000   0.00000000   0.00000000
  0.00000000  11.70600000   0.00000000
  0.00000000   0.00000000  12.46800000
PRIMCOORD
135 1
Pb    3.96039733   3.87015578   4.19347465  -0.65907575  -0.13229066  -0.22421283
Pb    3.90276869   3.83410130   8.26149629  -0.94464958   0.57504266   0.86933410
Pb    3.89402431   3.88085506  12.44509628  -0.74609427  -0.19512861   0.90122813
Pb    3.95434533   7.71039102   4.13211962  -0.63481864   0.50567551   0.20180190
Pb    4.00919965   7.89793285   8.41507711   0.20050507  -0.51818006  -0.23021069
Pb    3.84005965   7.87332683   0.01731805   0.78612504   0.43996471   0.83178893
Pb    3.85271384   0.00010535   4.19224032   0.43228727   0.70496479  -0.56153396
Pb    3.93459731  11.65032626   8.24371692  -0.08457344   0.21436049   1.78723196
Pb    3.74075765  11.65571102   0.00548592   1.48298911   0.23947765   0.45538263
Pb    7.68557430   3.92285619   4.13291758   0.40486011  -0.30954276   0.64530589
Pb    7.87116122   3.84665013   8.33449643  -0.12106943   0.78087466  -0.55305050
Pb    7.73235148   3.79651333   0.02628254   0.58216625   0.25318448   0.10216627
Pb    7.81347406   7.79514246   4.12726957  -0.62465109  -0.33681681  -0.12291112
Pb    7.90553004   7.75109278   8.23628599  -0.09339012   0.65374432  -0.10227433
Pb    7.77400142   7.69712812  12.45741467   0.24000449   1.04055682   0.47913542
Pb    7.79302367  11.62622361   4.10258293  -0.79485165   0.53405728   0.64410362
Pb    7.67135151   0.05539279   8.25615998   0.55723820  -1.27319457   0.68682712
Pb    7.80710599   0.00944674  12.45499588  -0.77310716  -0.53543066  -0.13091727
Pb    0.07420433   3.84439087   4.14153296   0.14376404   0.93904347   0.85004368
Pb    0.02130492   3.92390973   8.32282638   1.04501018   0.36928721   0.22270886
Pb   11.61012786   3.96608645  12.44790158   0.20973601  -0.70758548   0.40563911
Pb   11.63543623   7.74003061   4.16217997   0.65877856   0.81211577  -0.89590570
Pb    0.00952868   7.85844851   8.32492100  -0.58723201  -0.50753070   0.11531473
Pb   11.70027577   7.74012426   0.03094558  -0.78252272   1.02641771   0.61979697
Pb   11.66809597   0.13933652   4.18657985   0.00100415  -1.24986955   0.27197507
Pb    0.03781038  11.61685881   8.34857280  -0.59019041   0.60651342   0.73897519
Pb   11.66616448  11.66717120  12.34282128  -0.88098310  -0.34131971   1.73283244
Ti    1.89135013   1.98481083   2.19369473   1.62207915  -0.41895869  -0.32099363
Ti    1.99145984   1.92540288   6.46578012  -0.92811944   1.01732186  -1.92247201
Ti    1.83057257   1.94677804  10.58710246   0.60178087  -0.06910148  -1.99262717
Ti    2.04083575   5.85770581   2.24516263  -1.60702145   1.20227842   2.14323112
Ti    1.97672198   5.95857641   6.39655778   1.15370565  -3.28177551  -2.03996164
Ti    2.00479297   5.89093915  10.63761032  -2.23587826  -1.19076000  -2.94883119
Ti    1.86041117   9.85545699   2.28846400  -0.08272725  -2.75770116  -0.14210698
Ti    1.96953450   9.71598000   6.39837811  -0.10190960   1.32414036   0.75202008
Ti    1.95019619   9.70968217  10.58758871  -0.88575167   1.09820743  -1.45638599
Ti    5.84310843   1.94165081   2.10616937  -1.27579724  -1.02705262   3.93609170
Ti    5.86836998   1.94362912   6.38225699   0.45233417  -0.24120226   1.45625541
Ti    5.67440156   2.02896586  10.50844184   2.62256017  -3.26775348  -0.16998892
Ti    5.83926886   5.84200807   2.11403668   0.60340192   0.57225086   1.98284688
Ti    5.84307331   5.83431722   6.44583132   0.83361260   1.23920669   0.00777651
Ti    5.81118617   5.84314355  10.55317703   1.36488259   1.39628580  -1.18900387
Ti    5.75553584   9.74311451   2.25669553   1.16354899   0.46981442  -1.05707795
Ti    5.84828248   9.73296541   6.29117825   1.87829858  -0.08707255   1.18737382
Ti    5.90577065   9.75160136  10.58076871  -0.14010319   1.74186976  -0.53861871
Ti    9.67722143   1.94532649   2.32701505  -0.06978142  -0.11884050  -2.57473488
Ti    9.83298147   1.96462969   6.45962093  -1.30347206  -0.27041257  -1.99563961
Ti    9.66144175   1.95164773  10.52931328  -0.44376065  -1.42306004   1.25130598
Ti    9.76053304   5.77817525   2.19563974  -0.20167132   1.44599780   2.01787943
Ti    9.83780434   5.82675515   6.32496653  -1.64297710   1.00583046   4.50244827
Ti    9.70902664   5.80982827  10.53932508   0.70470813   1.48641582  -1.21012697
Ti    9.70532754   9.72554380   2.26630836   0.71289890  -0.39137393   0.76830256
Ti    9.84668920   9.85061071   6.33457936  -2.58026444  -1.85022751   0.14888384
Ti    9.71499670   9.72081458  10.52524871   0.41950354  -0.21834105   0.72427772
 O    1.92747484   1.86234266   0.38153327  -0.15498527   0.81543891   1.29281820
 O    1.96245237   1.97612498   4.60913284  -0.13468620  -0.51078630   1.06542633
 O    2.02340551   2.05482442   8.77355705  -0.92831306  -0.70667139   0.37265538
 O    1.84261805   5.96176045   0.49531624   1.11023917  -0.76477679  -2.71889068
 O    2.18377771   5.69534359   4.56030815  -1.39858678   1.48435800   1.83691694
 O    1.93103347   5.91028916   8.82168353  -0.08871160  -0.15348580   0.69676051
 O    1.80757028   9.69473361   0.49330889   1.01885285   0.58398091  -1.08180787
 O    2.05245980   9.89393461   4.66298213  -0.39241410   0.03030000  -1.82783009
 O    1.97946119   9.63901305   8.76270989  -0.54565674   0.17828326   1.01256680
 O    5.71335913   2.08533025   0.37291788   0.19253944  -0.50357716  -1.68335009
 O    5.96136244   1.95975999   4.64191121  -0.54303606   0.87394507  -1.96892391
 O    5.75057250   1.88087326   8.69157995   0.46487474   0.50470738   1.28714455
 O    5.74473121   5.91179924   0.36268165   0.01630500   0.01485957  -2.09179001
 O    5.90805332   5.83780561   4.64447962  -0.31092064  -0.16374340   0.07480215
 O    5.81626657   5.92908900   8.76083969   0.40320305  -0.27943638   0.09791103
 O    5.95939583   9.73500225   0.46279969  -1.18518542  -0.45147412  -0.51171840
 O    5.82958800   9.73756586   4.50546142  -0.16371188   0.13057505   0.59916469
 O    5.84876243   9.81935569   8.76506634  -0.18939642  -0.23554662   0.11764273
 O    9.75520681   2.12246168   0.50275963  -0.25186963  -0.94905792   0.90424057
 O    9.73515443   2.04200635   4.63151290   0.41183961  -0.65956207   0.23932456
 O    9.71921086   1.84097921   8.77485372  -0.58701587   0.98359515  -1.89574731
 O    9.75116824   5.79624931   0.44253919   0.26402746  -0.29340437  -1.52919336
 O    9.85295191   5.90553653   4.60505580  -0.55899433  -0.35838119  -3.96363593
 O    9.76109492   5.86652043   8.73190146   0.11692677  -0.34989773   1.06656556
 O    9.78282126   9.70403988   0.52865567  -0.15919548   0.31783709  -3.11742422
 O    9.89587781   9.90526602   4.54438651  -1.05008945  -1.05614585   0.15528696
 O    9.80363453   9.77671073   8.75982978  -0.20187395  -0.24787106  -1.38371371
 O    3.96657810   1.96879702   2.60674710  -1.09531206  -0.09695641  -0.65982774
 O    3.89189382   1.87238641   6.72389266   0.56753183   0.61972492  -0.54886281
 O    3.84193261   1.93484962  10.84221020  -0.44530965  -0.06055498   0.50116811
 O    3.97315687   5.76147079   2.56367016  -0.96036920   0.92602559  -0.28637534
 O    3.90658485   5.97411028   6.77862718   0.65690536  -0.36885944  -0.23730275
 O    3.88542040   5.84611687  10.87091154  -0.97500812  -0.13929266   0.42303831
 O    3.88065606   9.89566710   2.60761986  -0.62149906  -0.80553703  -0.81352968
 O    3.87825633   9.75363820   6.78749192   1.60729613  -0.21907952  -0.95116527
 O    3.83226346   9.80642056  10.93614412   1.07227073  -0.68435953  -0.04199853
 O    7.76147600   2.01676821   2.53666447   0.64792207  -0.95693799  -0.20503498
 O    7.77730252   1.95068784   6.71026513   1.10707363   0.62074708   0.79856654
 O    7.64731909   1.97703805  10.94149289   1.86192604   0.28885644  -0.79298745
 O    7.71895981   6.00317627   2.35268666   3.26214738  -0.46604100   1.34501130
 O    7.92308904   5.78571391   6.70828272  -1.94797643  -0.00968573   0.17433872
 O    7.77176558   5.85109192  10.88016280  -0.48353025  -0.30721926  -0.14207095
 O    7.76525704   9.68651600   2.55015485   1.12832281   0.24217039   0.93318970
 O    7.79445181   9.83102657   6.60613240   0.54857012   0.21538264   0.10228784
 O    7.81847252   9.76475890  10.88417749  -0.26489652  -0.96058083   0.06951575
 O    0.00407369   2.04022703   2.62283082  -0.30649429  -0.18842379  -0.90643348
 O    0.00268067   1.96995592   6.73068772   0.70851758  -0.04189947   0.44686315
 O   11.59033301   1.85427722  10.74975998   1.12556704   0.52955438   0.67459724
 O    0.05121375   5.90836938   2.56152566  -0.46315464  -1.57804981   0.06706617
 O    0.03275339   5.96385582   6.69733582   0.87003655  -1.10054443   0.04168783
 O   11.64069223   5.89181710  10.90213141   1.41295103  -1.04585673   0.01270268
 O    0.00608712   9.77994158   2.61323046  -0.32683389   0.03883750   0.46284394
 O    0.01954902   9.79230312   6.64499515   0.66086791  -0.69423439   0.94305105
 O   11.67198236   9.80034514  10.84446691   0.58657008  -0.60364057  -0.09420064
 O    2.10044270   3.90014655   2.49171733  -1.28375386  -0.51359160  -0.14036886
 O    1.99864732   3.89341560   6.62785165  -0.32109719   0.48366534   1.43334015
 O    1.82871132   3.81250373  10.88157168   0.55729674   2.67608162   0.71800068
 O    2.01606585   7.86457075   2.57443004   0.57981123  -1.61831472   0.76162026
 O    1.94903729   7.80792541   6.62129348  -0.13561380   0.76603761   0.25123472
 O    1.99223243   7.80519791  10.93007220  -0.60764815  -0.57214279  -0.11518865
 O    1.85380898   0.03383034   2.53161493   0.98040259   1.91594281   0.38468713
 O    1.87963242  11.70347150   6.90926688   0.94408221   0.06539560  -1.48095831
 O    1.92111848  11.66869298  10.97660278  -0.29342238   0.32650968  -1.45048719
 O    5.99617609   3.93981818   2.46552206  -1.19300245  -0.70097973   0.03318186
 O    5.83210479   3.96526703   6.86848405   0.13633876  -1.50749389  -1.34917648
 O    5.76467823   3.92518568  10.87924016   0.00014409  -0.13531210  -0.72547099
 O    5.83118002   7.82166826   2.57376924  -1.09687007  -0.89766183  -0.08072797
 O    6.01001258   7.84009350   6.66501876  -1.21003241  -0.56524886   0.19595264
 O    5.78606509   7.84100657  10.76921006  -0.24161653  -1.16023936   1.07297318
 O    5.83100443  11.70149319   2.53971913   1.02680496   1.41772861  -0.30104579
 O    5.87805084   0.00364057   6.62528324  -0.94515390  -0.21683708   0.12858027
 O    5.91120223  11.66733508  10.91416303  -1.25912301   1.42954871  -0.10249047
 O    9.64998157   3.89674010   2.63037396   0.86338577   1.53175100  -0.15682245
 O    9.83107339   3.88433174   6.81025849  -0.12618923   0.29533611  -0.35936283
 O    9.69091745   3.87480306  10.88937665   0.33506068   0.16805268  -0.67182346
 O    9.85147695   7.77524226   2.48577010  -0.73337358  -0.53876731   1.28899524
 O    9.74413293   7.84279759   6.68752350   0.52203904   0.03704985  -0.34293625
 O    9.78800702   7.75884215  10.85026453  -0.93109135   0.78478317   0.15683145
 O    9.66560908  11.67858455   2.52703918   0.74831420   2.52464013   0.20764666
 O    9.86489203   0.01131970   6.67011817  -0.63501226   0.93897142   0.51914818
 O    9.63997294  11.68724699  10.85798222   0.16972776   0.70311410   0.70261428
