# total energy = -399029.68903504
CRSYTAL
PRIMVEC
 11.70600000   0.00000000   0.00000000
  0.00000000  11.70600000   0.00000000
  0.00000000   0.00000000  12.46800000
PRIMCOORD
135 1
Pb    3.97933764   3.85808689   4.19619268  -0.32491266   0.45118665  -0.41632278
Pb    3.89674010   3.82226653   8.25152189  -0.69600710   1.27842161   1.55449886
Pb    3.89102758   3.85302990  12.46703996  -0.39856415   0.69936747  -0.34237459
Pb    3.97300469   7.71204157   4.13597224  -0.81342344   0.64466141   0.79521142
Pb    4.02034376   7.90188947   8.43143513   0.05486941  -0.56473256  -0.41146558
Pb    3.85626076   7.85198680   0.02629501  -0.54077990   0.22865533  -0.32831970
Pb    3.85562863   0.01489003   4.18823809  -0.22059444  -0.16746188  -0.38449259
Pb    3.91936780  11.65849705   8.27248060   0.29391256  -0.08739301   1.02698376
Pb    3.76542220  11.66398717   0.01450028   0.99996077  -0.14953656   0.12634733
Pb    7.69231696   3.91110337   4.14724331   1.00459795   0.05306588   0.31058107
Pb    7.86494534   3.82538033   8.33646637  -0.31451151   0.92488912   0.06746747
Pb    7.71818722   3.78483074   0.03860093   0.70959527   1.06572472  -0.79603485
Pb    7.79955562   7.82794267   4.11308099  -0.36686064  -0.98029859   0.79041756
Pb    7.89658666   7.74238352   8.22235924  -0.73389796   0.63346017   0.31140116
Pb    7.75556447   7.67980324  12.46387309   0.58674166   0.48073992  -0.39130668
Pb    7.78844663  11.64803189   4.08727223  -1.09263103   0.29759297   0.84868401
Pb    7.64404141   0.07617094   8.26937606   1.06165094  -1.31716591   0.86206216
Pb    7.82532053   0.02741545  12.44689168  -0.57710059  -0.66691054  -0.66132326
Pb    0.11293949   3.82376490   4.14876440  -0.75494696   1.64418880   0.41626611
Pb    0.00889656   3.90704138   8.31933534   1.19651921   0.86378568   0.73149103
Pb   11.62008967   3.96258635   0.00966270  -0.02987331   0.28516826  -0.00874764
Pb   11.63371545   7.73588669   4.15699328   0.60792734   0.42488040  -0.86763611
Pb   11.68679045   7.84839305   8.32042006   0.07212132  -0.57577378   0.28607169
Pb   11.69486759   7.73051363   0.04178027   0.26280244   0.19028775   0.35893309
Pb   11.67288373   0.13123597   4.15499840   0.99926069  -1.59183967   0.10724855
Pb    0.01563922  11.61723340   8.34702677  -0.15880426   0.54590380   0.01480497
Pb   11.68241241  11.68528038  12.36552551  -0.27503047  -0.36385697   1.56453664
Ti    1.92946486   2.01558590   2.18668771   0.84802394  -1.43920276  -1.03393453
Ti    1.99503017   1.95016107   6.42418687  -1.04182874   0.21198682  -0.53846965
Ti    1.82853573   1.99486628  10.58768845   1.35734036   0.36065328  -1.97255184
Ti    2.06966762   5.86440164   2.26563509  -2.63897566   1.65749694  -2.11869803
Ti    2.00708735   5.97318550   6.37362913   0.57561043  -2.86752098   1.06775161
Ti    1.99147154   5.86235309  10.60872197  -1.85848254   0.27429705  -2.80167035
Ti    1.87830964   9.80865640   2.27189402  -0.03794420  -0.97501801  -1.52394215
Ti    1.93897013   9.71037283   6.41003569   1.20766044   1.85796248  -0.42342024
Ti    1.94756234   9.75990091  10.55439889   0.58207448  -1.38020622   0.83179881
Ti    5.82710633   1.93486133   2.10732889  -0.60548374  -0.81392683   1.12912841
Ti    5.86634484   1.96068476   6.36202142   1.01121202  -0.29335916   2.16189615
Ti    5.73466405   2.01807928  10.51532418   0.81390349  -1.38744369  -0.71996642
Ti    5.88656110   5.84680753   2.10601975  -1.18429452   0.89063866   0.95445573
Ti    5.86443676   5.83616677   6.43803882   0.11738634   0.75284673   0.65435915
Ti    5.81883019   5.89391247  10.51259369   0.24119338  -0.28626504   0.84341676
Ti    5.75037350   9.73013255   2.20819501  -0.00374375   0.67020091   3.23784200
Ti    5.87637688   9.74767985   6.27075566   0.14605951  -0.52494482   3.00287264
Ti    5.90345286   9.76965201  10.58652893  -0.86719940   0.58327794  -0.76151102
Ti    9.72457220   1.88477135   2.32657867  -0.29740294   3.20280145  -0.96063975
Ti    9.83274735   1.96370491   6.43564496  -1.01841615  -0.31428148   0.44687283
Ti    9.68701936   1.96543740  10.52158312  -0.41527934  -0.27970765   0.58838518
Ti    9.74415634   5.81312936   2.21681040   1.36235758  -0.80461580  -0.97466797
Ti    9.79750058   5.84304990   6.34154897  -0.51719396  -0.10471827   0.07080451
Ti    9.72637493   5.84433756  10.51507482   0.20703293  -0.38155227   2.06993263
Ti    9.67524312   9.72686658   2.26791673   1.81641121  -0.88462466   0.24797414
Ti    9.78166237   9.82656658   6.30329714  -0.60016648  -0.63444361   0.13870870
Ti    9.74855780   9.70052808  10.55367575  -0.10160459   0.53349576  -0.70310455
 O    1.89746066   1.89477998   0.37430183   0.14593283   0.93039640   0.89097203
 O    1.94373448   1.99524088   4.57108050   0.06361371  -0.26140562   1.32494677
 O    1.94299700   2.08612626   8.75784737   0.16558168  -1.24131084   1.29760374
 O    1.84164645   5.97338450   0.42806384   1.10124532  -0.93723049   1.28380888
 O    2.12714408   5.80017082   4.56261473  -0.50239232   0.47026876   1.13035855
 O    1.94229464   5.90388598   8.77630001  -0.45699062  -0.01540504   0.80030199
 O    1.94442513   9.73680497   0.43954687   0.18934431   0.42295018   1.00543471
 O    2.08468642   9.89127735   4.65383062  -0.89005859  -0.04768195  -1.19522240
 O    1.90496420   9.68518151   8.74723710   0.02672296   0.34982542   0.34616501
 O    5.74133647   2.12702702   0.30672527   0.86333897  -1.01097866   2.14242066
 O    5.91396485   2.00403208   4.60318560  -0.20203905   0.30534382  -1.49032175
 O    5.81856095   1.84389400   8.67589520  -0.00309034   0.69882408   1.71373650
 O    5.68824976   5.93398211   0.32647458   1.01806944  -0.10413820   1.00289776
 O    5.86245845   5.82305605   4.65283318  -0.26121560  -0.39504709  -1.07244546
 O    5.89318670   5.89815004   8.76219870   0.11421599   0.15219353  -2.34512311
 O    5.88716981   9.70673226   0.48999240  -0.15923764  -0.35986653  -3.33336925
 O    5.81397220   9.76340101   4.51754291   0.04677852   0.28319137  -0.41188563
 O    5.84842295   9.79792200   8.79758288   0.08765638  -0.21375701  -1.28985288
 O    9.77723750   2.07732335   0.56623422  -0.58645830  -0.74520588  -1.54878156
 O    9.79419949   2.04458167   4.65117493   0.03240026  -0.78303341  -1.55583901
 O    9.68026499   1.90814824   8.76880674  -0.13287139   0.10446824  -1.33316768
 O    9.79075793   5.80619941   0.35952725  -0.35812634  -0.11227910   2.98304044
 O    9.80555431   5.84354155   4.54028454  -0.32512935   0.39997097   0.61898523
 O    9.66441507   5.84685435   8.75591483   0.17867313   0.61841517  -2.13471647
 O    9.76879747   9.74875680   0.52371834  -0.36404033   0.40558159  -2.71513743
 O    9.90445831   9.83857694   4.49548702  -1.12879837  -0.38117889   0.58029428
 O    9.87870511   9.80681856   8.75717410  -0.56955309  -0.69017979   0.59902636
 O    3.92884966   1.98503324   2.54518012   0.06218355   0.24542052  -0.25693846
 O    3.96408472   1.86065699   6.67001843  -1.97610557   0.85004083  -0.31032771
 O    3.88622812   1.99316891  10.91262947  -1.34989620  -0.36061328  -0.76234445
 O    3.97288763   5.81760106   2.55092786  -0.00728747   0.72608710  -0.04280141
 O    3.93254876   5.92236976   6.88363267  -1.29513680  -0.38882640  -1.51172079
 O    3.83183033   5.81130323  10.82707405   1.18679813   0.00115679   0.51746732
 O    3.84352463   9.93085534   2.60174743   0.96606701  -1.26610692  -0.80835954
 O    3.88471804   9.82331231   6.79522208   1.25315548  -1.03273107  -0.81950745
 O    3.92340637   9.78978633  10.94846250  -1.61518892  -0.59849630  -0.50188226
 O    7.71396135   1.98674232   2.52420894   1.12157757  -0.29138228  -0.05901320
 O    7.80718793   1.95050054   6.75811732  -0.27504380   0.62228560  -0.72039647
 O    7.69708130   1.97868859  10.89179544   1.38952059  -0.33747072   0.17290582
 O    7.77715034   5.97186272   2.39601296   1.22419894  -0.11134233   0.48897417
 O    7.86727483   5.78736446   6.64484554  -0.44254236   0.15003329   0.50329909
 O    7.71146797   5.84383420  10.86207173   1.65997055   0.39839413   0.65874964
 O    7.76042246   9.60622454   2.54404553   0.48224675   1.65174297   0.42740068
 O    7.83309331   9.84817586   6.58037351  -1.12770492  -0.82589815  -0.09120010
 O    7.80732841   9.74650925  10.88506272   1.06995519  -0.40102776   0.49574825
 O    0.04194260   2.04776570   2.55931883  -1.76358869  -0.23281246   0.02908989
 O   11.70260526   2.00707564   6.84146590   0.54466367  -1.40582239  -1.12207096
 O   11.60416951   1.94161569  10.78357320   1.06484462  -0.37207122   0.56021206
 O    0.07734154   5.85178258   2.62039956  -1.35672696  -0.37265128  -0.38926312
 O   11.68748111   5.93975317   6.74162215   1.12308774  -0.14181238  -0.77802618
 O   11.65558226   5.83814509  10.88552404  -0.05126235  -0.00888098  -0.40403809
 O    0.00625100   9.79699723   2.55224947  -0.70691497   0.24236685   0.53417251
 O    0.03374840   9.74162785   6.66489408  -0.75446357   0.20894315   0.33138671
 O    0.01600210   9.76511008  10.89875258  -0.74972305  -0.12387372  -0.37727179
 O    2.06565247   3.98082430   2.46378901  -0.54298348  -2.45913574   0.53784291
 O    1.91771204   3.88812449   6.69086492   0.76051758   0.48922753  -0.14034555
 O    1.84713656   3.87156050  10.86761999   0.38998987   0.20032886   0.74774283
 O    1.97144258   7.85673943   2.54052955   0.64303456  -0.49077770   0.97090422
 O    1.99299332   7.80860436   6.64514477  -0.36974762   0.38707954   0.09343368
 O    1.95634184   7.79838502  10.93818887  -0.07896208   0.99952072  -0.61149774
 O    1.84052267   0.08272630   2.48343858   0.93647040   0.38408255   0.87778390
 O    1.90062128   0.02685356   6.80515908   0.11269248   0.46193450  -0.45054991
 O    1.95794556  11.66931340  10.97660278  -0.64086099   1.22885946  -1.76162847
 O    5.94162613   3.99436814   2.52787453  -0.81355345  -1.90746463  -0.67233114
 O    5.77461662   3.95572664   6.83900970   0.99998410  -2.65582753  -1.48186415
 O    5.81950913   3.95970668  10.83072718  -0.37752515  -1.95439316  -0.17268246
 O    5.82944753   7.81952606   2.69509535  -0.58149108  -0.88793169  -1.71275973
 O    5.90855668   7.76666176   6.65314922  -0.08373594   2.28300956   0.29719292
 O    5.76178685   7.82304956  10.73735432   0.03152016  -0.18254689   1.42499118
 O    5.83326368  11.69253810   2.51752609   0.91938184   1.67236192  -0.49963868
 O    5.84947649  11.65787663   6.67717506  -0.02654961   1.23359332  -0.71259560
 O    5.81211094  11.66117773  10.85905447   0.46345134   2.40683995   0.87025307
 O    9.68609458   3.90472360   2.63952547   0.11190240   0.88680490  -0.50198561
 O    9.84720426   3.88595888   6.80596950  -1.04701598   0.97723825  -0.80674603
 O    9.68704277   3.91123213  10.81049161  -0.11637622  -1.28051851   0.38781963
 O    9.81027183   7.79068247   2.48796446  -0.06722411  -0.73929523   0.93138984
 O    9.71484452   7.89856497   6.67446950   0.43332800  -1.81125064  -0.27670732
 O    9.75077023   7.75597418  10.88330473  -0.49728842   1.70550559  -0.28946873
 O    9.61718136   0.00539647   2.53193910   0.88227440   0.52704838   0.29065886
 O    9.71840314  11.69519536   6.64970806   1.23929061   1.37712255   0.34994543
 O    9.69565838  11.68536232  10.86238343  -0.10104786   0.61035428   0.77387572
