# total energy = -399029.28902766
CRSYTAL
PRIMVEC
 11.70600000   0.00000000   0.00000000
  0.00000000  11.70600000   0.00000000
  0.00000000   0.00000000  12.46800000
PRIMCOORD
135 1
Pb    3.99741170   3.84723543   4.19752675   0.12287878   0.51256523  -0.59498334
Pb    3.88814790   3.81432986   8.24652222  -0.44097365   1.24425273   1.58238753
Pb    3.88664953   3.82708940   0.02036024  -0.13279561   1.12071812  -0.86429270
Pb    3.98901850   7.71590455   4.14270496  -1.15756112   0.70287316   1.68569181
Pb    4.03165175   7.90394973   8.44648400  -0.52438080  -0.58634115  -0.79820166
Pb    3.87111567   7.83100964   0.03442415  -1.00604783  -0.52161467  -0.92773397
Pb    3.85792301   0.02944059   4.18290179  -0.67556618  -0.56868655  -0.13918469
Pb    3.90479383  11.66659760   8.30485999   0.11690752  -0.05513228  -0.18009492
Pb    3.79364536  11.67209942   0.02403830   0.19449151   0.21321977  -0.38735401
Pb    7.70254800   3.89924519   4.16269116   1.33799453   0.05199063  -0.42248339
Pb    7.85778127   3.80706044   8.33866074  -0.02641843   1.03011267   0.68723366
Pb    7.70621198   3.77629707   0.04861273   0.71643938   0.97412886  -0.96117616
Pb    7.78425588   7.85781638   4.10127379   0.25830829  -1.58069506   1.30820173
Pb    7.88530207   7.73569939   8.20938005  -0.77484025   0.46262672   0.96717386
Pb    7.73888342   7.66426938   0.00129667   0.78324443   0.89168431  -0.57545115
Pb    7.78010025  11.67138536   4.07471695  -1.02527326   0.88343350   0.77562831
Pb    7.62018458   0.09273493   8.28565927   1.88652480  -1.11748126   0.80144909
Pb    7.84195475   0.04333561  12.43678013   0.26530561  -0.69168697  -0.12606803
Pb    0.14957927   3.80832469   4.15736732  -1.70554133   1.84505394  -0.20790964
Pb    0.00012877   3.89280689   8.31803867   0.47133237   0.99527948   0.46855566
Pb   11.63027389   3.95953109   0.04004722   0.17706433  -0.06851339   0.26207404
Pb   11.63400810   7.73305384   4.14898883   0.47716611  -0.17408135  -0.13162674
Pb   11.65798199   7.83624223   8.31670459   0.72722889  -0.61684797  -0.03745124
Pb   11.69006813   7.72167560   0.05387423   0.64605898   0.07412500  -0.25754139
Pb   11.68092575   0.11785601   4.12345436   1.24310502  -1.17842084   0.06939665
Pb   11.69840281  11.61962143   8.34561788  -0.30008591   0.68638742  -0.27248275
Pb   11.69759509  11.70235943  12.39375306  -0.31755540  -0.06099247   1.12315105
Ti    1.97893442   2.02747920   2.16648955  -1.10538009  -1.13179852  -0.11873751
Ti    1.98355829   1.97863006   6.37492580  -0.90389655  -0.51743638   1.53627295
Ti    1.84620008   2.04719210  10.56205424   1.76840610  -0.23537529   0.47241661
Ti    2.06142660   5.89126691   2.26021151  -2.37001653  -0.73307850  -2.87917566
Ti    2.04481579   5.94677677   6.36624808  -0.99501503  -1.27255404   3.73501657
Ti    1.95283004   5.83724372  10.54052201   0.23832654   1.46058242  -0.38619044
Ti    1.89530675   9.74682531   2.23592384  -0.29028544   1.01539874  -0.40229008
Ti    1.92467711   9.73060079   6.41496055   1.65698325   1.20312036  -2.33533671
Ti    1.95106243   9.79314595  10.53180688   0.29073500  -1.86820908   1.99511805
Ti    5.80353044   1.91760668   2.12914789   1.13498249   0.55923515   0.69528348
Ti    5.87740701   1.97378378   6.36775670   0.34053071  -0.37239679  -1.65031914
Ti    5.80742854   1.98650820  10.51518703  -1.30216172   0.69891700   1.37066454
Ti    5.91870578   5.86190827   2.11444812  -1.52496512  -0.69280824   1.07780337
Ti    5.88687716   5.84859854   6.43754010  -1.20752608  -0.13465733  -0.18480211
Ti    5.83074689   5.93956587  10.47902983  -0.58714508  -2.84304666  -0.11977944
Ti    5.74666270   9.72710070   2.19540284  -0.10925966   0.84194678   0.52563429
Ti    5.90639107   9.75585064   6.28999379  -2.10957149  -0.18853083   1.54292648
Ti    5.89042408   9.79833171  10.58184096  -0.17245764   0.25381266  -0.36712368
Ti    9.76822388   1.87020909   2.31184150  -0.42545051   5.28844696   0.14274417
Ti    9.81834897   1.95880010   6.41466132  -0.06690554   0.03744595   0.65014207
Ti    9.70828916   1.97371354  10.52062308   0.78740686  -0.05583043  -1.51079067
Ti    9.74801932   5.83630724   2.22894176   2.64293826  -2.97636059   0.08813020
Ti    9.75065317   5.85750681   6.36350512   1.68127551  -1.40657140  -2.90453101
Ti    9.74702431   5.87443369  10.51381555  -0.33532636  -1.72952155   0.71723273
Ti    9.67126308   9.71643653   2.26937549   2.44437424  -0.28187597  -3.58781909
Ti    9.70722391   9.79316936   6.27450853   1.64848915   0.85741174   0.68760388
Ti    9.78141654   9.68899767  10.57493369  -0.30716785   1.92718116  -0.18357506
 O    1.87347506   1.96638559   0.39964927   0.43088757   0.43801182  -1.14455553
 O    1.92683101   2.00252201   4.58312459   0.07856245  -0.08700894  -0.50300805
 O    1.86848831   2.06674112   8.78821942   1.12948724  -0.79022059  -0.66078878
 O    1.88635166   5.94742060   0.40469881   0.34659717  -0.26526858   2.58375991
 O    2.04716869   5.92735651   4.60520542   0.27122397  -0.49809988  -1.48218259
 O    1.93484962   5.89679215   8.76145062  -0.48676560   0.11233785  -0.50572129
 O    2.08980194   9.79627145   0.42274001  -1.00129304  -0.14673206   1.44398561
 O    2.07925484   9.88616183   4.59640301  -1.02559589  -0.24819577   0.87661073
 O    1.83161441   9.74691896   8.74450661   0.83155394   0.39635585  -0.82833824
 O    5.80456057   2.12700361   0.31596406   0.74949019  -0.93659829   1.78105733
 O    5.85674592   2.06084130   4.50992496   0.03026352  -0.63440737   2.05985512
 O    5.88715811   1.83584027   8.72302424  -0.46406532   0.48614679  -1.04126712
 O    5.67501027   5.95135381   0.32297107   1.73131451  -0.36286077   1.93795480
 O    5.80536829   5.79267898   4.62522902  -0.07689113  -0.14969388   0.30764915
 O    5.97530429   5.87341526   8.68140606  -0.38649720   0.51012701  -0.12380435
 O    5.80495858   9.66352541   0.40603289   0.44739447   0.06221422   1.18259385
 O    5.80020594   9.80105921   4.51657040   0.26990702   0.19765432  -0.35460468
 O    5.85151334   9.76743958   8.78274596   0.25963054  -0.00765844  -0.49813690
 O    9.77432270   2.00064905   0.56279305  -0.74052009  -0.10977269  -3.20304080
 O    9.85542187   2.01386512   4.61504267  -0.37800839  -0.51925049  -0.40013218
 O    9.63606314   1.98124050   8.71136666   0.55760615  -0.62892270   1.15472094
 O    9.81748273   5.81241530   0.38105948  -0.39727613   0.36140101   0.86269014
 O    9.74366469   5.79977282   4.49131024   0.00657420   1.31266563   3.98082702
 O    9.57548459   5.85273076   8.71130432   0.47588089   1.16694906   0.02418649
 O    9.73940371   9.80884370   0.41639380  -0.33661158  -0.16616375   2.58558989
 O    9.86386190   9.75449274   4.47001489  -1.00597908   0.34654428   0.65040652
 O    9.92932185   9.80841058   8.77081409  -0.98335813  -0.69892758   0.35700058
 O    3.89311124   2.00989679   2.47259142   1.05961987   0.00479181   0.40116353
 O    3.96091240   1.88399876   6.60434947  -1.76932109   0.48910333   0.59732107
 O    3.87829145   2.03657476  10.95280136  -0.42027789  -0.56006552  -1.36559770
 O    3.96710487   5.90410840   2.53484414  -0.24231972  -0.11124303  -0.09307540
 O    3.91337433   5.85346824   6.92673455  -0.39532979  -0.19584549  -1.81271185
 O    3.82449067   5.77808160  10.80326017   2.05436516   0.57141566  -0.02443507
 O    3.84612336   9.91303880   2.56091473   1.81852444  -1.04811635  -0.55943613
 O    3.94115267   9.85139501   6.76896448  -0.60973429  -0.96971257  -0.11087809
 O    3.95450921   9.74888557  10.93747819  -1.78545776   0.12448662  -1.19746116
 O    7.71293122   1.94484655   2.50945930   0.80328965   0.75452001   0.22455405
 O    7.82673695   1.97587915   6.77715595  -1.25538073   0.09263641  -1.64678610
 O    7.80176806   1.96699430  10.84779587  -0.88344937  -0.60299085   0.78309634
 O    7.87651087   5.93538683   2.46204349  -3.90582405   0.20743892  -0.26493009
 O    7.78844663   5.79605031   6.60092077   0.58056559   0.39783676   0.35166929
 O    7.71479248   5.85234446  10.86977695   1.59175960   0.65060221   0.66008534
 O    7.77424725   9.59433125   2.55534154  -0.75098168   2.06141007  -0.44925090
 O    7.82828215   9.83238446   6.55244519  -1.19611247  -1.03550743   0.25230002
 O    7.82848115   9.71152001  10.90322860  -0.99435391   0.52638003  -0.17647726
 O    0.01163576   2.04442949   2.49651751  -0.87302480  -0.40783822   0.97113530
 O    0.00992669   1.98858016   6.90573844  -0.75853963  -1.20385553  -2.17792092
 O   11.65843852   2.01552737  10.84168655  -0.63620562  -0.74247172   0.18854141
 O    0.05284088   5.78008333   2.66289050   0.00657420   1.32463458  -0.81606253
 O   11.68056286   5.90853326   6.75426470   0.00834600   0.64017764  -1.00055259
 O   11.66752238   5.78426237  10.85253371  -1.64980611   1.22745494  -0.43010481
 O   11.68590080   9.82303137   2.51190302   0.09117665  -0.01827341   0.01250314
 O    0.02062597   9.69858488   6.69855768  -0.86134674   0.86917443  -0.57183878
 O    0.03942581   9.72411567  10.93847563  -0.76028499   0.42229828  -0.28468441
 O    2.00668934   3.97053473   2.45832803   0.25269140  -0.51299364   1.03362984
 O    1.86777424   3.90441924   6.75150928   1.38091986   0.44718291  -0.95696614
 O    1.88230139   3.94414940  10.88539936   0.03520871  -1.38710796   0.38595772
 O    1.95231497   7.82890256   2.54541701   0.04019622   1.09721391   0.20515408
 O    2.02237538   7.82831726   6.67433236  -0.26348091   0.29854682   0.18565892
 O    1.91603808   7.82700619  10.92194306   0.31691014   0.53863459  -0.50631895
 O    1.86755183   0.14536511   2.47244180   0.62464920  -2.21625013   1.01544634
 O    1.92882103   0.06991994   6.68046661  -0.23276783  -0.82684675   0.72312994
 O    1.96919503   0.01052369  10.90346549  -0.38783531   0.21205620  -0.83497591
 O    5.85319900   3.97836604   2.56122643   0.23586717   0.02399608  -1.27600774
 O    5.75699909   3.84485911   6.74715794   0.91068231   0.35935418  -0.63236582
 O    5.86111226   3.92189630  10.77327463  -0.05858599  -0.53962363   0.23483053
 O    5.80534487   7.78458365   2.74353353   0.73443777   0.71340880  -2.87792746
 O    5.80063906   7.77814535   6.65236374   0.70961131   1.39557562  -0.01837390
 O    5.73961568   7.79758901  10.76326283   0.54620840   0.99165653   0.53801578
 O    5.87273632   0.03704949   2.47385069  -0.03644104  -1.57363957  -0.45821042
 O    5.81940378  11.65591003   6.70223574   0.86464706   1.55330874  -0.55311052
 O    5.72944317   0.03884051  10.83676169   1.46389332  -0.63983385   0.65343710
 O    9.72822448   3.94859768   2.62695773  -0.51074582  -0.83310890  -0.67984496
 O    9.82098282   3.92499839   6.76755559  -1.02940395   0.24606431  -0.81271461
 O    9.67989040   3.90441924  10.74616920  -0.12550740   0.26807174   0.99617331
 O    9.76564856   7.78356523   2.52959512   0.60285334   1.34192424   0.05075301
 O    9.70316193   7.88413147   6.64938389   0.01188962  -1.40100210  -0.06984622
 O    9.69334060   7.81202251  10.90488684   0.51163966  -1.13620424  -0.49293255
 O    9.60609578   0.05279406   2.55050395   0.80453256  -3.14647521   0.39637701
 O    9.62023663   0.01888178   6.64328704   1.91854955  -0.43529329  -0.12873367
 O    9.74868656   0.00463558  10.89741851  -0.07950917   0.38090675  -0.07713971
