# total energy = -399029.06045201
CRSYTAL
PRIMVEC
 11.70600000   0.00000000   0.00000000
  0.00000000  11.70600000   0.00000000
  0.00000000   0.00000000  12.46800000
PRIMCOORD
135 1
Pb    4.01546236   3.83847934   4.19696569   0.25906880   0.93732845  -0.40143129
Pb    3.87838510   3.81044347   8.24677158   0.20348415   0.37446572   0.93231430
Pb    3.88203737   3.80543330   0.03856352   0.40480980   1.37968627  -0.70307119
Pb    4.00094692   7.72189802   4.15454956  -1.03558252   0.53453860   1.41472721
Pb    4.04099314   7.90420726   8.45834107  -0.89371161   0.03703409  -1.48266400
Pb    3.88269290   7.80908431   0.03951109  -0.19753152  -0.29002513  -0.80057895
Pb    3.85812201   0.04167336   4.17731612  -0.54987600  -1.17136672   0.20791734
Pb    3.89080516  11.67444062   8.33609233  -0.19333966   0.00646655  -1.13567779
Pb    3.82210265  11.68060969   0.03210510  -0.22077447   0.18622958  -0.74106163
Pb    7.71675908   3.88783184   4.17649324   0.61897918   0.24187233  -0.83418536
Pb    7.85068743   3.79272059   8.34287492   0.15088922   1.32237214   0.51212241
Pb    7.69696424   3.77119325   0.05529558   0.99614414   0.84561690  -0.79377275
Pb    7.76990432   7.88214145   4.09383040   0.32089209  -1.00386199   0.79186005
Pb    7.87188700   7.73074775   8.19985450  -0.24375822   0.42027680   1.36940324
Pb    7.72508205   7.65203661   0.00487499   0.54276145   1.56698839  -0.20360481
Pb    7.76868690  11.69677567   4.06479242  -0.23795754   0.32814964   0.11388641
Pb    7.60294165   0.10522523   8.30409944   1.97588280  -0.93617546   0.12722172
Pb    7.85904551   0.05651657  12.42661871   0.89337644  -0.83506574   0.87516105
Pb    0.18002657   3.79938130   4.16539672  -1.64314356   1.83203663   0.16442563
Pb   11.69905834   3.88214272   8.31812594  -0.41723345   0.84163508  -0.52667327
Pb   11.64068052   3.95617147   0.07051901  -0.11201840  -0.87495101  -0.10062708
Pb   11.63609177   7.72996345   4.14088463   0.83736277   0.11499471   1.12164979
Pb   11.63212343   7.82255791   8.31278964   0.81018269  -0.07030980  -1.00711091
Pb   11.68721187   7.71346970   0.06488347   0.07082820   0.52216411  -0.78108544
Pb   11.69276051   0.10061307   4.09275815   0.62027965  -1.42701679   0.16569481
Pb   11.67476839  11.62399947   8.34337364  -0.07887675   0.01928794  -0.36412459
Pb    0.00550182   0.01297025  12.42507268  -0.34161008   0.50201814   0.59147734
Ti    2.01320959   2.02193056   2.14491991  -1.73010463  -1.19102111   0.80149061
Ti    1.96021652   1.99863562   6.34760842  -0.10885439  -1.47104029   2.21235219
Ti    1.88727644   2.09318498  10.54254182   0.82064001  -2.16885601   1.53934354
Ti    2.02218809   5.90916539   2.22117420   0.17389978  -1.65230042   2.42618193
Ti    2.06665918   5.90362845   6.40396378  -2.89587624   1.21290997   0.24681944
Ti    1.91737256   5.83249109  10.46839463   1.59553150   1.73775992   1.99414289
Ti    1.90806629   9.70011837   2.19783410  -0.33739588   2.27678086   2.68416031
Ti    1.93304690   9.76712351   6.38941362   0.73154279  -0.05319824  -1.48197579
Ti    1.95844892   9.80116456  10.53376435  -0.26831950  -0.43448802  -0.23908371
Ti    5.79641320   1.90735223   2.16269928   2.54334854   0.85845616   1.69814278
Ti    5.89294087   1.97789258   6.35334370  -0.62646912  -2.07248784  -2.29378070
Ti    5.86252868   1.96484039  10.53079697  -1.37067242   1.85414894   0.58136413
Ti    5.92835152   5.86838168   2.14073066  -1.71609451  -1.07042682   2.66204353
Ti    5.89264822   5.86035137   6.43419868  -1.57764681   0.02843585  -1.09923360
Ti    5.83608483   5.94692894  10.44584002   0.28134646  -2.55074016  -0.43622644
Ti    5.74365425   9.73529490   2.19348277   1.51059933   0.15214946  -0.92348368
Ti    5.90622718   9.76185581   6.32936773  -3.30010955   0.61577496  -1.34042665
Ti    5.87533505   9.82900143  10.57201618   0.71835049  -0.72563933   0.06196182
Ti    9.80182010   1.92350651   2.29427408  -2.46241608   1.15833530  -2.16058848
Ti    9.80210104   1.95396552   6.40156992   0.04250407  -0.03898255  -0.82017077
Ti    9.73995389   1.98077226  10.50258188   1.35558975  -0.03848202  -0.05416800
Ti    9.78468251   5.82090215   2.24270644   0.28228046  -1.39078711   1.40098076
Ti    9.72714752   5.85391307   6.34977785   2.37434225  -0.72542035   0.21573351
Ti    9.75983068   5.88076663  10.52183248  -2.56067461  -1.49752769  -1.86900369
Ti    9.69921701   9.70377064   2.22537592   0.50496317   1.41130847  -2.04477148
Ti    9.65689982   9.77040119   6.25556964   2.85909241   0.55069828   0.87839209
Ti    9.80841058   9.70355993  10.59278786  -1.03321845   1.66948795   0.23539237
 O    1.86794983   2.05510536   0.38465027   0.53322920  -0.20478908  -0.79359400
 O    1.91252628   2.00620940   4.57419750  -0.18412471   0.13471613  -1.68946857
 O    1.84068656   2.01523472   8.78990260   1.12675332   0.19640535  -1.98168349
 O    1.94395689   5.90966875   0.47045504  -0.68341233   0.18614914  -2.03634753
 O    1.97908660   6.03098973   4.60397108   0.61695476  -1.22895793   0.42952303
 O    1.90792582   5.89309305   8.72893408  -0.14335906  -0.15883946  -0.76593574
 O    2.19069596   9.84870263   0.45594229  -1.62493264  -0.56176337  -1.24926031
 O    2.03220842   9.87102597   4.56921030  -0.41948133  -0.27748082   0.61387566
 O    1.79450639   9.82342937   8.71761313   1.22279079   0.12792782   0.65231746
 O    5.89617173   2.08850258   0.39058504  -0.13111864  -0.30491117  -1.42031338
 O    5.80213743   2.08994242   4.49074918   0.26839994  -1.27910388   1.21321386
 O    5.93459082   1.84978212   8.73551718  -0.81765476   0.42903145  -0.99063841
 O    5.73185461   5.95337895   0.38654540   1.09859454  -0.45928616  -1.25493586
 O    5.74605398   5.75697568   4.60900816   0.07473852   0.26309084   1.04953454
 O    6.03720562   5.86986835   8.59696030  -1.22621847   0.46348249   2.52042289
 O    5.74201541   9.62438055   0.35578685   0.47234886   0.59677750   1.78850024
 O    5.79737309   9.84579954   4.50556116   0.23059273  -0.06053623   0.98498967
 O    5.86407388   9.73870135   8.74813480  -0.00827200   0.53103942   0.74622325
 O    9.74145226   1.92089607   0.44667857  -0.32662573   0.63033922   1.04022574
 O    9.89885113   1.96285037   4.56359970  -0.75418243   0.16139122   1.16735362
 O    9.61536693   2.02746749   8.69123084   0.85334816  -0.84280147   0.34429145
 O    9.82777230   5.83258474   0.44177864  -0.04383581   0.39694894  -0.92446237
 O    9.68342561   5.80841185   4.58478283   0.35681788   0.83968662  -1.17617530
 O    9.51055141   5.90460005   8.66761645   1.11396769   0.49232501   2.37892291
 O    9.69850294   9.86040863   0.40017293   0.30498267  -0.77105267   1.66224827
 O    9.78228278   9.68623505   4.47486494  -0.42395473   0.76753115   0.85640045
 O    9.93703610   9.78083124   8.79932840  -1.13859153  -0.35749716  -0.07745563
 O    3.89620163   2.03346097   2.41653529   0.18465651  -0.49626662   0.46493043
 O    3.88440198   1.92899662   6.56507527  -0.40825089   0.30786513   1.24150224
 O    3.85315867   2.05610037  10.93674258   0.72787379  -0.41119145  -0.94298165
 O    3.94646719   5.98397843   2.51460858  -1.47663987  -0.91526977  -0.22775495
 O    3.88034000   5.77850302   6.89462945   1.22905178   0.25965423  -0.95950332
 O    3.89528856   5.76881045  10.77854860   0.07739307   0.71194650  -0.59209405
 O    3.91312850   9.85200372   2.49965945  -0.89562432  -0.32485604   0.44473976
 O    3.97164680   9.84039137   6.73856749  -1.92275160   0.01652166   0.62425253
 O    3.91167696   9.71422410  10.87698346  -0.67741949   0.80963748  -1.25079316
 O    7.74769804   1.93468574   2.50531992   0.55615039   1.28007364   0.60955866
 O    7.80046869   2.00465250   6.72916662  -0.06694916  -0.43841622  -1.26680536
 O    7.86632665   1.93104517  10.83560216  -2.70856518  -0.36927281   0.51787393
 O    7.83695629   5.90657836   2.51700244  -1.42060386  -0.01034559  -0.45725279
 O    7.73215247   5.82049244   6.57266828   0.54470097   0.30365539   0.11023529
 O    7.77764199   5.88551927  10.90371485  -0.82139526  -0.00322657   0.07682998
 O    7.76213154   9.66646362   2.55050395  -0.31054650   0.97383073  -0.38522245
 O    7.77959689   9.77516554   6.53703474   0.53299682  -0.39637245   0.82505979
 O    7.81215128   9.69921701  10.91378899  -1.59452599   1.17590270  -0.75337355
 O   11.65664750   2.02434199   2.47160645   1.67721921  -0.35939646   0.54545622
 O   11.69979582   1.92372892   6.87959304  -1.02120594   0.40881844  -1.75777629
 O   11.69051296   2.05840645  10.90577207  -0.78666267  -0.39829856  -0.44971369
 O    0.02286182   5.76275845   2.66949854   0.04516756   1.72719535  -1.06468424
 O   11.67960297   5.90187255   6.72688498   0.13779523   0.39301181  -0.26959762
 O   11.62596608   5.78018868  10.80400825   1.07437737   1.24577901   0.16722319
 O   11.66605913   9.84660725   2.47370107   1.34503859  -0.55286125  -0.32180822
 O   11.67860796   9.69215829   6.70870663  -0.23616102   0.95041797  -0.89780963
 O    0.03098578   9.70100803  10.96675306  -0.26816756   0.61916241   0.24760597
 O    1.95723149   3.93307553   2.49408625   0.37657505   0.50667924   0.51500934
 O    1.87341653   3.93651709   6.77291683   0.59159800  -0.42473680  -0.80193303
 O    1.91833246   3.97038255  10.91821513  -0.29932052   0.49333499  -0.29691177
 O    1.93575098   7.84175575   2.55819671  -0.43859051   0.65616522  -0.74819406
 O    2.03980562   7.85824951   6.71123764  -0.11605832  -0.29313104   0.36267219
 O    1.88897381   7.87021304  10.88517493   0.33743163  -1.87546130  -0.11936533
 O    1.92115360   0.12558197   2.50202837   0.30906728  -1.11059811   0.20813185
 O    1.94691851   0.07976468   6.58751767  -0.35170988  -1.15703484   1.29344023
 O    1.96306108   0.06438300  10.79782412  -0.21008477  -1.08766799   0.67252153
 O    5.77549457   3.95651094   2.54221273   0.92723758   0.31819285  -0.90922330
 O    5.77603305   3.75947555   6.63409812   0.03002679   4.46849103   1.13666989
 O    5.89879387   3.86372918  10.72795345   0.15622513   1.42556438   0.75690848
 O    5.80864597   7.77708010   2.67533357   0.83513277   1.21273568  -1.66340573
 O    5.72376576   7.84246982   6.65157826   0.91588648  -1.36865693  -0.17863239
 O    5.74048193   7.80553739  10.81104020   0.73229804  -0.18442413  -0.56137011
 O    5.91035940   0.03213297   2.41272008  -0.87144289  -1.30417462   0.00338745
 O    5.82293899   0.00869756   6.70418075   0.59590159   0.16939509  -0.02825263
 O    5.70685059   0.09443230  10.84383104   1.11318115  -3.06963302   0.42020083
 O    9.74920163   3.95892238   2.58653647  -0.60251562  -1.57936735  -0.46553373
 O    9.75352114   3.96654298   6.69839560  -0.23613421  -2.14729339   0.12942044
 O    9.66826634   3.90626879  10.72472424   0.09810213   1.01576724   1.08651947
 O    9.74554936   7.81643567   2.57294635   0.63227427  -0.71551718  -0.69790063
 O    9.69263824   7.81762969   6.62254028  -0.28673599   1.01999933   0.34078333
 O    9.65891325   7.82769685  10.90705627   1.37999462  -1.54376332  -0.06173838
 O    9.63159145  11.70042794   2.58283348   0.91244093   0.26914626  -0.10123485
 O    9.60237327   0.03399422   6.63368668   1.22737145  -1.03542610  -0.02129449
 O    9.79744205   0.04176701  10.92801498   0.03144345  -0.72534884  -1.02432079
