# total energy = -399029.14208617
CRSYTAL
PRIMVEC
 11.70600000   0.00000000   0.00000000
  0.00000000  11.70600000   0.00000000
  0.00000000   0.00000000  12.46800000
PRIMCOORD
135 1
Pb    4.03385248   3.83303605   4.19518277  -0.46928091   1.42831684   0.22646574
Pb    3.86944171   3.80816080   8.25025015   0.80262452   0.30827821   0.41678916
Pb    3.87880651   3.78874055   0.05416099   0.71752256   1.95050943  -0.67748885
Pb    4.00924647   7.72962398   4.17093251  -0.81333750   0.48704412   0.60639403
Pb    4.04718562   7.90449991   8.46526081  -1.12994440   0.26808120  -1.37062724
Pb    3.89350925   7.78642149   0.04173040   0.57339654   0.04595011  -0.84174370
Pb    3.85631929   0.04982074   4.17232892  -0.64870471  -1.62760819   0.00246361
Pb    3.87624290  11.68219000   8.36364661  -0.59983372  -0.13492946  -0.83370896
Pb    3.84969369  11.68938919   0.03772817  -0.15028971  -0.53750152  -0.61171319
Pb    7.73320601   3.87735497   4.18761469   0.52770306   0.71325790  -0.27666652
Pb    7.84400330   3.78302802   8.34864761  -0.38762241   1.45137588  -0.24781238
Pb    7.69106441   3.76925006   0.05918560   0.87543641   1.48434070  -0.69952139
Pb    7.75680531   7.90287278   4.08910502   0.45913250  -0.26602352   0.19546061
Pb    7.85764079   7.72744666   8.19496704  -0.27288244   0.96021175   1.28528266
Pb    7.71318875   7.64501301   0.00766782   0.12401118   1.45121258  -0.05490870
Pb    7.75671166   0.01678640   4.05552870   0.95014733  -0.91238127  -0.09098570
Pb    7.59257013   0.11423885   8.32275157   1.90102721  -1.19268721  -0.37993295
Pb    7.87855942   0.06667738  12.41943714   0.38980607  -1.08761506   1.29324740
Pb    0.20469112   3.79652504   4.17393730  -1.22994935   1.09791744   0.73467453
Pb   11.69096950   3.87448700   8.31657991  -0.19073869   0.67476861  -0.92312691
Pb   11.65068915   3.95031847   0.10021778   0.03696352  -0.32895763  -0.95149578
Pb   11.64086782   7.72743496   4.13649589   0.84602703   0.81291290   1.74973899
Pb   11.60932015   7.80879166   8.30568288   0.78289228   0.61497001  -1.25051212
Pb   11.68475361   7.70694946   0.07309988  -0.11599044   0.34120104  -1.27805979
Pb    0.00060871   0.07879309   4.06300950  -0.08543790  -1.20812678   0.57019571
Pb   11.65111057  11.62844775   8.33978286   0.22106725  -0.63489821  -0.70659028
Pb    0.01817942   0.03082190  12.45796326  -0.26521632   0.14570777   0.00032195
Ti    2.02238709   1.99905703   2.13452160  -1.59522194  -1.12973444   0.99166014
Ti    1.93405361   1.99728943   6.34904224  -0.26344793  -1.90348149   0.02841553
Ti    1.93988320   2.10846131  10.54063422  -0.29385581  -2.68673305  -0.91180269
Ti    1.98408506   5.90477564   2.21219724   1.42645513  -0.82782522   2.84493619
Ti    2.04943966   5.87826155   6.44780126  -1.92623258   3.02356211  -1.69058895
Ti    1.90359460   5.85404183  10.42329787   1.21665144   2.05739663   2.13702079
Ti    1.91684579   9.68707789   2.19424332   0.56797473   2.84467023   1.76784748
Ti    1.95167114   9.80225322   6.34442908  -0.56158240  -1.41063762   0.96963227
Ti    1.96212460   9.80111774  10.53418826  -0.65274074  -0.05086800  -1.07546963
Ti    5.82497584   1.90840577   2.21578802   2.31919749   0.08828879  -0.67824473
Ti    5.89987082   1.95906934   6.31084028  -0.89871475   0.77679391   1.02732187
Ti    5.89709650   1.96794248  10.55361341  -1.11338967   1.06118721  -1.25026016
Ti    5.91189289   5.86114738   2.19961703  -1.98747762   0.05261306  -0.06773535
Ti    5.87560429   5.87116771   6.41735441  -1.27199408  -0.51717671  -0.21502020
Ti    5.84511016   5.91840142  10.40943346   0.76136833  -0.74318053   1.64865621
Ti    5.76183367   9.74539718   2.17925678   1.98798154  -0.67589310  -1.00491606
Ti    5.86134638   9.77504848   6.35240860  -1.54652826   0.14910923  -1.33953813
Ti    5.86995029   9.84784809  10.56323870   0.76539970  -2.40580654   0.39698694
Ti    9.80203081   1.99526429   2.24864120  -2.07734350  -2.17147404  -2.03249455
Ti    9.78618088   1.94742187   6.37734460  -0.29151352  -0.98343410  -1.59993920
Ti    9.78860402   1.98762027  10.48430380   0.11487994   0.22467402   1.71088110
Ti    9.82607493   5.78635774   2.27272938  -1.91291601   1.25566798   0.05696171
Ti    9.73691033   5.83972540   6.34111259   1.29425991   0.13306309   2.56030493
Ti    9.73791704   5.86668431  10.50738206  -2.26095264   0.08245171  -0.26325662
Ti    9.73525978   9.70986947   2.15782429  -0.88280858   1.53016950   3.56434845
Ti    9.64731260   9.75672859   6.25144273   2.44779994   0.61399483   2.00019229
Ti    9.82026875   9.73988365  10.61251224  -1.48390211  -0.54897505  -0.19763027
 O    1.88603560   2.13345362   0.34000236   0.61141924  -0.90997831   0.88230466
 O    1.89209931   2.01471966   4.50635911  -0.00663029   0.06152966   0.70493387
 O    1.86071552   1.97266000   8.72146574   0.49909622   1.01550306   0.62049914
 O    1.97395937   5.87819131   0.46277476  -0.98202965   0.08122457  -2.09247046
 O    1.93748347   6.08085729   4.61403276   0.59063250  -1.54486252   0.99229937
 O    1.87462225   5.88211282   8.66846428   0.13060881  -0.51258077   0.16159527
 O    2.22089744   9.87741745   0.44403535  -1.67504206  -0.56636498  -1.51368476
 O    1.96753277   9.84356369   4.56341268   0.28381006  -0.34709411  -1.01732277
 O    1.80778099   9.90420077   8.71404728   0.64020804  -0.32005036   0.85659070
 O    5.98096999   2.03504128   0.41848842  -1.00036677  -0.05190851  -0.87953776
 O    5.75889547   2.06521934   4.51594700   0.25956120  -1.14639182  -1.87825746
 O    5.94671824   1.88232480   8.71109237  -0.82409714   0.34508776   0.79440314
 O    5.83558147   5.93419282   0.41186791   0.05880942  -0.71649139  -0.45507314
 O    5.68988860   5.73356368   4.62530383   0.04687863   0.76402325  -1.46118368
 O    6.04796343   5.88543733   8.60924128  -1.14744632   0.05426480   1.02191872
 O    5.69896075   9.61128154   0.37416468   0.07590074   0.94061949  -0.51289805
 O    5.80307391   9.88771873   4.53265412  -0.21196402  -0.23570895   0.88259395
 O    5.87558087   9.73338682   8.73883367  -0.44448147   0.95453797   0.00054125
 O    9.69524867   1.86941308   0.36684596   0.26572490   1.22460686   2.84629864
 O    9.90959724   1.91906993   4.55472248  -0.87528710   0.71933294   0.35455494
 O    9.63037402   2.03735906   8.68877465   0.59419728  -0.67690094  -0.09679012
 O    9.83506514   5.86749203   0.47395855   0.06017188  -0.20999033   0.23718805
 O    9.63843946   5.85283612   4.62464303   0.57703131  -0.04499359  -4.66546672
 O    9.49365965   5.97507017   8.71103003   1.26754278  -0.81821340  -0.10064885
 O    9.66933159   9.88091754   0.43877386   0.45460188  -0.59211627  -3.32779496
 O    9.68303932   9.65067223   4.50794255   0.21101683   0.71288929  -0.94717513
 O    9.89632264   9.73822140   8.82716945  -0.80354371   0.08470069   0.07920422
 O    3.90926552   2.03587240   2.38102643  -0.32044230  -0.74251330   0.34987501
 O    3.79386778   1.98616873   6.57691987   1.65398004  -0.07025496   0.85641806
 O    3.85688117   2.05727097  10.87968901   0.94166466  -0.25719091  -0.35669194
 O    3.86978119   6.02508991   2.48658052  -0.49178471  -1.07300602   0.14762546
 O    3.89135534   5.71655486   6.82034510   0.24195197   0.87467586  -0.06136635
 O    3.96946948   5.78825411  10.73092084  -1.72237329   0.18788314  -0.44073939
 O    3.94245203   9.77707361   2.45983666  -2.55364197   0.32380644   1.62700161
 O    3.92626264   9.82957502   6.73244570  -0.90248482   0.78001340   0.50430807
 O    3.84098443   9.71253844  10.76610553   0.79059574   0.69565800  -0.28436064
 O    7.80272795   1.97656981   2.52676488  -0.56440529   0.65585758   0.64434206
 O    7.76831231   2.01560932   6.62802620   0.40592687  -0.52007426  -0.28388005
 O    7.82697107   1.88020601  10.84319518  -0.61183917   0.11800145  -0.48195358
 O    7.73867272   5.87644712   2.55453112   2.24526111  -0.49515818   0.03998238
 O    7.70541597   5.85783458   6.55177192   1.47085616   0.11390010   0.40537629
 O    7.81075826   5.91716059  10.94110638  -1.40748345  -0.90010986  -0.45660357
 O    7.73964431   9.77955529   2.53033073   0.90315205  -0.42526249   0.04343984
 O    7.74525149   9.70176892   6.55607338   0.17629296   0.44877880   0.88302788
 O    7.73761918   9.73607920  10.89480023   0.85580216   1.03777822  -0.38632995
 O   11.66124796   1.98931764   2.46972378   1.83178943  -0.11304157  -0.26864578
 O   11.64684958   1.87503196   6.77961215   0.74422103   1.39271110  -0.42075520
 O   11.68993937   2.08307099  10.94863705  -0.21690058  -0.09548833  -1.21313333
 O   11.70125907   5.81565786   2.63182025   0.07573743   0.54256406  -0.61592186
 O   11.68156958   5.91027746   6.68686270  -0.44513937  -0.42786608   0.27256049
 O   11.62557978   5.82722339  10.76232773   2.06314506   0.23155161   0.47917735
 O   11.69802821   9.84757885   2.42331788   0.56199767  -0.56473191  -0.22180914
 O   11.62185727   9.72550868   6.68233681   0.70002531   0.43236404  -0.40279136
 O    0.00877950   9.70473053  11.00403238  -0.14744816   0.57025171   0.36458203
 O    1.92486440   3.91479076   2.54989302   0.42898124   0.54726265  -0.53946121
 O    1.90250594   3.94853915   6.75850382  -0.84528981  -1.35858913  -0.63389037
 O    1.94148692   4.00626144  10.93776496  -0.40790989  -0.28276956  -0.95034330
 O    1.90174505   7.87565633   2.54191350  -0.46099888  -1.54103179  -0.71824111
 O    2.05065708   7.87587874   6.76192006  -0.27805696  -0.66576336   0.11888798
 O    1.87671763   7.83959014  10.84222267   0.28290020  -1.84655711  -0.05901006
 O    1.98825239   0.06102338   2.54001836   0.05977994   1.11666982  -0.71495630
 O    1.95003230   0.04635576   6.54965236  -0.31211828   0.38810767   1.08749841
 O    1.94663756   0.07944862  10.72137035  -0.29934762  -0.09969233   1.72356777
 O    5.73634971   3.94368116   2.48638103   0.80066016  -0.65393055   0.20349068
 O    5.79914069   3.83746092   6.56618492  -0.18679597   0.83052213   1.51859332
 O    5.94155589   3.85828589  10.71468750   0.02529402   0.76863786   0.85044100
 O    5.84541451   7.81452760   2.53857208   0.04158280  -0.34566167   0.60365046
 O    5.68616609   7.85731303   6.64314989   0.57216474  -1.29368600  -0.21999876
 O    5.77117506   7.80927160  10.83687390   0.31834730  -0.54066036  -0.79458045
 O    5.91133100  11.69057149   2.35397087  -1.11516273   2.34198591   0.81985114
 O    5.84992132   0.07473110   6.70238536  -0.37479576  -1.17721964  -0.07269058
 O    5.73208873   0.03560965  10.86828079   0.25675698  -0.30268376   0.03900720
 O    9.74497576   3.90724039   2.52700177  -0.24443891  -0.29965090   0.01003176
 O    9.67592207   3.92663723   6.63449710   0.48369398  -1.06023536   0.82531962
 O    9.66021262   3.93993524  10.74944828   0.11346150  -1.22841426   0.65945968
 O    9.75132041   7.82265156   2.58711000   0.07704856  -1.55995215  -0.96865242
 O    9.67217615   7.78653855   6.61068322   0.08909133   0.90171494   0.66148003
 O    9.68169313   7.78831786  10.90664483   1.20116054   1.15321808   0.40864711
 O    9.69410149  11.64632281   2.61141013   0.37487508   2.14792507  -0.46687795
 O    9.63668356   0.00845173   6.62438555  -0.01810382  -0.32234600   0.39668832
 O    9.84542495   0.05069869  10.91570906  -0.24745311  -0.74669397  -1.26166370
