# total energy = -399028.60602186
CRSYTAL
PRIMVEC
 11.70600000   0.00000000   0.00000000
  0.00000000  11.70600000   0.00000000
  0.00000000   0.00000000  12.46800000
PRIMCOORD
135 1
Pb    4.05148172   3.83198251   4.19392350  -1.37074327   1.00359763   0.27160759
Pb    3.86244152   3.80699020   8.25551165   0.35167885   0.74298353   0.36703664
Pb    3.87761250   3.77790079   0.06818749   0.25201470   2.21537325  -0.75098945
Pb    4.01484194   7.73946872   4.19038259  -1.25997259   0.42862121  -0.00946741
Pb    4.04978435   7.90557686   8.46785416  -1.17240816  -0.09403618  -0.76063853
Pb    3.90650291   7.76248272   0.04104466   0.07513367  -0.20999476  -1.00968180
Pb    3.85217536   0.05294624   4.16704249  -0.56774566  -1.18998241  -0.42593239
Pb    3.85887119  11.68998619   8.38985435  -0.74946740   0.04973518  -0.20162953
Pb    3.87815098  11.69700979   0.04155584  -0.14992820  -0.69626016  -0.45129050
Pb    7.75255603   3.86883300   4.19833717   0.97866343   1.49780839   0.33947013
Pb    7.83571546   3.77774861   8.35392157  -0.66758341   1.15571403  -0.89663006
Pb    7.68779844   3.77236385   0.06090618   0.35444034   2.03317916  -0.36771893
Pb    7.74499396   7.92334657   4.08507786   1.40699799  -0.76337984   0.41552833
Pb    7.84153334   7.72734131   8.19434364  -0.67005826   1.49450590   1.04018744
Pb    7.70130716   7.64262499   0.01041078   0.34847325   0.99415041   0.02053761
Pb    7.74728833   0.04134559   4.04559170   1.78476974  -1.37702123   0.38291523
Pb    7.58828573   0.11941291   8.34124162   1.63548750  -1.68390249  -0.29956975
Pb    7.90044964   0.07351368  12.41622040  -0.47974924  -1.50673077   0.95236463
Pb    0.22626527   3.79742640   4.18529564  -1.09809002   0.40967025   0.67048621
Pb   11.68202611   3.86870423   8.31191688   0.75667797   0.34722977  -0.64688431
Pb   11.66157573   3.94315439   0.12818351   0.95892923   0.77887893  -1.66327606
Pb   11.64871084   7.72737643   4.13764295   0.34289374   0.81728552   1.12578572
Pb   11.58814399   7.79631306   8.29412504   0.83664829   0.86405734  -0.34713288
Pb   11.68182711   7.70127205   0.07737641  -0.02101401  -0.10635794  -1.21811414
Pb    0.01517098   0.05165858   4.03354762  -0.27854363  -0.39261680   0.89868907
Pb   11.62682062  11.63115184   8.33362367   0.12978624  -0.61632618  -0.82824672
Pb    0.03079849   0.05005486   0.02466170   0.23823953  -0.68246076  -0.53510834
Ti    2.00859742   1.95915128   2.13868591  -0.65990048   0.07393863   1.02237499
Ti    1.90318489   1.96892579   6.35298212   0.09410078  -0.83047529  -1.04132192
Ti    1.99189296   2.08641891  10.52821609  -0.75266492  -1.13255623  -1.27046950
Ti    1.96194901   5.88676010   2.23862940   0.03656155  -0.40198731  -2.47730753
Ti    2.00407891   5.89328035   6.47258765   0.65268183   1.80693841  -0.44920727
Ti    1.90784388   5.90451811  10.40703960   0.83280884  -0.42684077   1.15190285
Ti    1.93507204   9.71267891   2.21450382   1.60036726   0.66739366  -1.52977956
Ti    1.96285037   9.81902792   6.30848383  -1.79366789  -1.88134536   1.30160092
Ti    1.95556924   9.79943207  10.52200703  -1.23831666  -0.28542718   0.73925713
Ti    5.88762635   1.91257310   2.26172014  -0.04805971   0.54980402  -3.29724151
Ti    5.89353788   1.94733992   6.27775021  -1.21227220   1.82972074   1.89862086
Ti    5.91507692   1.98756174  10.56165527  -1.72084758   0.07795168  -1.08162198
Ti    5.86876798   5.85204011   2.26140844   0.49371014  -0.31344183  -2.67625228
Ti    5.83987757   5.87577988   6.39482473   0.14100179  -0.49989524  -0.28245575
Ti    5.86317251   5.87555746  10.39751405  -0.81856937   0.14147011   3.97283083
Ti    5.80690177   9.74798420   2.14983230  -0.31611450  -0.07537186  -0.44812528
Ti    5.79160203   9.79074622   6.35996420   1.26773223  -0.71987014   1.24667785
Ti    5.87471463   9.83251323  10.55868788   0.07865417  -2.77195989  -0.21770191
Ti    9.77356181   2.03937250   2.17373346   0.60544573  -4.03687007   1.56850106
Ti    9.76569538   1.92589453   6.32996620  -0.08000262  -1.52308980  -0.57187580
Ti    9.84246333   1.99718407  10.48779484  -0.88144588  -0.26840200   1.13627456
Ti    9.84207703   5.76660972   2.30706625  -2.81959568   2.25147051  -0.42039325
Ti    9.76487596   5.82618155   6.35732099  -1.23482441   0.37417857  -3.38076463
Ti    9.68418650   5.85247323  10.49197162   0.78998547   1.30682919   3.37273045
Ti    9.76211335   9.73843211   2.12906062  -0.64333958   0.54447078   2.11021438
Ti    9.67241027   9.75175354   6.27428411   0.42629978   0.64972655   0.96518701
Ti    9.81140731   9.77132597  10.63147607  -1.06087040  -1.78193961  -0.08049516
 O    1.93165388   2.17587616   0.32577637   0.39817613  -1.33453700   0.91904904
 O    1.87155528   2.02470488   4.46191069   0.50794557  -0.44784671   2.13583492
 O    1.90386384   1.96995592   8.66962380  -0.30461634   0.88001668   1.68442733
 O    1.96295573   5.84939455   0.37776793  -0.64134517   0.04721995   2.52877470
 O    1.91899970   6.06668132   4.66091244   0.18286428  -0.98670972  -0.74610031
 O    1.84430371   5.84861025   8.60880490   0.13725923  -0.53314623   0.55338912
 O    2.17918896   9.88253297   0.37269346  -1.01602840  -0.42302555   0.85377440
 O    1.91072356   9.79917454   4.52149526   0.59697956  -0.30560548  -0.31890426
 O    1.84857640   9.97522108   8.74080361  -0.53359840  -0.69273562  -0.90656983
 O    6.02771205   1.97708487   0.40952393  -1.17187928   0.35277698   0.40132520
 O    5.72543972   1.98930593   4.47429142   0.33438316  -0.41402243  -0.97264789
 O    5.92443001   1.93172412   8.71098016  -0.22283733   0.10880857   0.21801682
 O    5.94642559   5.88333025   0.42205427  -1.20041069  -0.49470331   1.58554642
 O    5.63441386   5.74329137   4.58391007   0.39372705   1.15650938  -2.10011716
 O    6.01050423   5.90478734   8.65730542  -0.29952534  -0.26334733  -2.57530428
 O    5.65844628   9.63931741   0.37836640  -0.01521245   0.97949511  -1.06765302
 O    5.80026447   9.92130324   4.59139087  -0.47000730  -0.37350838  -1.48353259
 O    5.86849874   9.76863359   8.72854757  -0.64421567   0.73253103  -0.83568338
 O    9.65674764   1.86660364   0.39274200   0.41079261   0.76503512  -0.44786286
 O    9.88254467   1.90284542   4.55805144  -0.65352966   0.61446500  -1.32632519
 O    9.67265609   2.01784516   8.68550803   0.17181426  -0.28959769   0.30862536
 O    9.84366905   5.89532890   0.51010328  -0.27723555  -0.72339872  -0.36529253
 O    9.61965133   5.89782227   4.50234442   1.20126659  -0.76388450   2.19143625
 O    9.53134126   6.01545587   8.74756127   0.94641772  -1.47842948  -3.08818340
 O    9.65838648   9.87471336   0.36920242   0.31493158  -0.42772897   0.18075278
 O    9.58709694   9.64548647   4.50886518   0.70993845   0.59610751  -0.75818387
 O    9.81838409   9.69615004   8.85341459  -0.07050695   0.31219431  -1.11729937
 O    3.91225055   2.00697029   2.36076593   0.01530127  -0.38350467   0.50262848
 O    3.76874670   2.04170199   6.62606873   2.57528410  -0.81791130  -0.16882668
 O    3.89965490   2.04632586  10.80350953   0.14834155  -0.21055594   0.29638031
 O    3.77677702   6.02203464   2.46464930   2.91413652  -0.57814164   0.71746796
 O    3.91085754   5.68998224   6.73808124  -1.54401095   1.20530387   0.50046450
 O    3.97930252   5.81899407  10.66229696  -1.11348011   0.00717827   0.18771305
 O    3.88071459   9.71116883   2.48605686   1.02042903   0.54686892   1.40168090
 O    3.84173361   9.84912404   6.74697092   1.20689052   0.42884730  -0.13266885
 O    3.80027096   9.74038701  10.63650067   1.65291238   0.04128112   0.82276814
 O    7.83717871   2.04764864   2.57636258  -1.14849943  -0.72379841   0.08959922
 O    7.74728833   2.00421938   6.50812145  -0.34156144  -0.40008172   0.63659733
 O    7.76017664   1.83092375  10.83269712   2.30317992   0.40078017  -0.74283012
 O    7.71475736   5.82491731   2.59318192   0.86773529  -0.32359961   0.00131615
 O    7.73758406   5.90193108   6.54780709   0.82058397  -0.19052299   0.57681338
 O    7.79193502   5.91334443  10.95948421   0.48377844  -0.88408222  -0.99941098
 O    7.74992218   9.88257979   2.50790080   0.43779793  -1.10301146  -0.29933155
 O    7.71701662   9.64404663   6.61401217  -0.39788544   1.10806613   0.31983687
 O    7.69612141   9.81914498  10.85809444   2.76001763   0.12290673   0.19445933
 O    0.03370157   1.94752722   2.45756748  -0.62874887   0.17639657  -0.59316030
 O   11.62229039   1.88192680   6.65459551   1.80050703   1.09470679   0.83305107
 O   11.67846749   2.10273707  10.94191680   0.26269733  -0.25726720  -1.14806340
 O   11.67998927   5.89555131   2.56602661   0.98944699  -0.90948070   0.33873938
 O   11.66210250   5.90231738   6.65521891  -1.12468758  -0.63438894   0.37131615
 O   11.69851987   5.88674840  10.73828942  -1.68227547  -0.95334165   0.34713691
 O    0.04293761   9.82577057   2.36146414  -2.07634569   0.12527661   0.22359633
 O   11.59338828   9.77916899   6.63641717   1.50922176  -0.39415097   0.17715961
 O   11.68837076   9.73391359  11.05608628   0.78935162   0.31683314  -0.45230386
 O    1.91073526   3.92135782   2.58706013   0.56566243   0.65094580  -0.93454006
 O    1.89811619   3.90871534   6.71424242  -1.46602697  -0.20542860  -0.50501450
 O    1.94893194   4.02533051  10.91726756  -0.12615269  -2.46006030  -1.10647948
 O    1.84618838   7.85419923   2.49416106  -0.09130295  -0.82157714  -0.10487626
 O    2.04853829   7.86784843   6.81901103  -0.65208028  -0.10762968  -0.56362765
 O    1.87891835   7.74019450  10.79452010   0.72170306   2.45777117   0.06070445
 O    2.05992823   0.03440393   2.55045408  -0.63749764   1.04190329  -0.95454879
 O    1.93904037   0.02361100   6.55809319  -0.25516782   0.77937552   0.53682015
 O    1.91648291   0.09010108  10.71499920  -0.20834755   0.77015035   1.73892246
 O    5.73060206   3.90852805   2.43491312   0.36511086   0.15693287   0.94830717
 O    5.81825659   3.95831366   6.56122266   0.39057798  -3.47265298   1.07724154
 O    5.98770094   3.88600570  10.73785304  -0.17040929  -0.36089998   0.53115989
 O    5.88727517   7.84292635   2.41683452  -0.51734434  -0.86208715   1.70941402
 O    5.67158041   7.82142243   6.62434814  -0.04382057   0.63565261  -0.23923673
 O    5.81823318   7.79321097  10.83111368  -0.09129487   0.25552713  -0.22246186
 O    5.86359393   0.01817942   2.32839900  -0.80554109   0.78046558   1.41799956
 O    5.86323104   0.09666815   6.69669995  -0.92794719  -1.06154058  -0.27883028
 O    5.77009811  11.66555577  10.89736864  -0.62885384   2.51269828  -0.11426696
 O    9.73076468   3.84366510   2.46494854   0.46874364   1.96909551   0.52880616
 O    9.61515622   3.84639260   6.60234212   0.94072113   2.31341441   0.88128842
 O    9.65651352   3.92995003  10.80463165   0.00551492  -1.15038483   0.00816337
 O    9.76060327   7.77534761   2.55910687  -0.59347117   1.66283196  -0.90404653
 O    9.65670082   7.78912558   6.62613107   0.96062085  -0.48595050   0.42308207
 O    9.75587405   7.78459535  10.92205528  -0.13970179   0.66676384   0.23257119
 O    9.77566889  11.67342220   2.61912782  -0.56164131   0.73178817  -1.05321573
 O    9.67375646  11.67239207   6.63141750  -0.87977444   0.43459234   0.52443783
 O    9.88438252   0.03370157  10.84964113  -0.61232928   0.92662297  -0.42465661
