# total energy = -399028.08356325
CRSYTAL
PRIMVEC
 11.70600000   0.00000000   0.00000000
  0.00000000  11.70600000   0.00000000
  0.00000000   0.00000000  12.46800000
PRIMCOORD
135 1
Pb    4.06513091   3.83424177   4.19349959  -1.77145413   0.23837685  -0.11727982
Pb    3.85643635   3.80818421   8.26209475  -0.22081172   0.60903894   0.06755171
Pb    3.87719108   3.77400269   0.08023158  -0.42647388   1.26051950  -0.43646424
Pb    4.01636372   7.75104596   4.21055581  -1.44206067   0.23437574  -0.31668434
Pb    4.04841475   7.90643140   8.46774194  -1.07036475  -0.23005653  -0.53229213
Pb    3.92004675   7.73709241   0.03699256  -0.66815103  -0.19186454  -0.64261846
Pb    3.84631066   0.05219705   4.16030977   0.57951023  -0.39748694  -0.29531194
Pb    3.83853787  11.69823892   8.41606208  -0.33556164   0.27287589  -0.13433301
Pb    3.90714674  11.70267550   0.04386242   0.10850222  -0.13134087  -0.53941958
Pb    7.77572221   3.86505196   4.21034386   1.05905229   1.82550146   0.48528278
Pb    7.82512153   3.77639072   8.35639024  -0.09195104   0.97970600  -1.13459628
Pb    7.68586695   3.78227884   0.06147971   0.60075838   1.57569783   0.12825927
Pb    7.73734994   7.94191229   4.08235984   1.64134093  -1.03623352   0.52338531
Pb    7.82300274   7.73224612   8.19722375   0.05162678   1.22547869   0.56441535
Pb    7.69038547   7.64367853   0.01344050   1.19344991   0.68879280   0.51650140
Pb    7.74329659   0.06199498   4.03672696   1.30692246  -1.53366378   1.16800184
Pb    7.58950316   0.11907343   8.35925788   1.19039813  -1.65462661  -0.19275423
Pb    7.92143849   0.07562076  12.41599597  -1.20111913  -1.16167462   0.00920007
Pb    0.24473734   3.80001343   4.19940942  -0.80512328   0.55353530   0.77162825
Pb   11.67517810   3.86393989   8.30483506   0.81553612   0.23188064  -0.42460007
Pb   11.67593899   3.93816764   0.15146126   1.13811030   0.97549116  -2.03584070
Pb   11.65812246   7.73006881   4.14261768   0.28855230   0.43727440   0.05237233
Pb   11.56893445   7.78622249   8.28092143   0.05636847   0.44506290   0.39006127
Pb   11.67861967   7.69517322   0.07773798  -0.17178442  -0.11778182  -0.48253916
Pb    0.02932353   0.02224140   4.00618036  -0.28489911   0.00110341   1.04091557
Pb   11.60227313  11.63193614   8.32470905   0.06592641  -0.24665742  -0.19868880
Pb    0.04452962   0.06763727   0.05841258   0.34985630  -1.18121297  -1.35896675
Ti    1.98680085   1.92005324   2.15717596   1.77537075   1.96686748   0.24155289
Ti    1.87420084   1.92820061   6.34375580   1.45623107   0.96951186  -0.14033219
Ti    2.03380044   2.04666533  10.49828042  -1.49705236   0.38556313   0.08720438
Ti    1.94220099   5.86242333   2.23633529   0.22814295   0.28056498  -2.30088336
Ti    1.96371662   5.93478982   6.48963140   0.85444880  -0.43500296  -0.50133694
Ti    1.92331921   5.94786542  10.40696479  -0.61548545  -3.87200351  -0.12573435
Ti    1.97443931   9.74909627   2.21587530   0.43122054  -1.83548188  -2.38653699
Ti    1.94923630   9.80980359   6.28956988  -1.70709338  -1.05993203   0.50389666
Ti    1.93181777   9.79496038  10.51801727  -0.76216475   0.48047151   0.90639368
Ti    5.95142405   1.92563700   2.26356540  -2.70488639   1.03166082  -3.00417459
Ti    5.86744520   1.95923322   6.26828700  -2.23304834   0.08055408  -0.06082685
Ti    5.91055840   2.00762582  10.55421187  -0.53734695  -1.75471904  -0.54478753
Ti    5.82924853   5.83726714   2.29065836   1.62437721  -1.08791000  -1.22387825
Ti    5.80406892   5.87249049   6.36636029   1.02485644  -0.66470659  -1.06853567
Ti    5.87040682   5.83246768  10.43368372  -1.84850413   0.26405853  -0.58983857
Ti    5.85165381   9.74954110   2.11333847  -0.82854843   0.74673189   0.55801357
Ti    5.73684136   9.79853071   6.38163359   2.75963454   0.11551535   0.55915674
Ti    5.88272153   9.78078442  10.55033432   0.33670482   0.71114435  -1.11860177
Ti    9.75060635   2.02937557   2.12134292   1.51428448  -2.46537631   4.96982932
Ti    9.74400416   1.88427970   6.27281288   0.51337507   0.28916365   0.78550044
Ti    9.88449958   2.00249860  10.50705790  -1.91040955  -0.97861253  -0.50509947
Ti    9.81848944   5.77816354   2.33630371  -2.14474552   1.86047765  -0.86899198
Ti    9.77645320   5.81675822   6.33264682  -2.78724967  -0.11633546  -2.92268609
Ti    9.63917693   5.85521243  10.51538652   3.03613876   0.80626149  -0.00885712
Ti    9.78038641   9.77565719   2.13088094  -0.28545578  -0.69365378  -0.71024472
Ti    9.70491783   9.75449274   6.31123926  -1.46773737  -0.51669525  -1.01712758
Ti    9.78684812   9.77981282  10.64775928  -0.17688894  -0.99500466  -1.27035577
 O    1.99583788   2.16235573   0.35017625  -0.01742099  -1.04854502   0.28869644
 O    1.87170746   2.01584344   4.49943937   0.68566149  -0.74818323   0.28681268
 O    1.93754200   2.00403208   8.68182997  -0.46424836   0.04077159   0.08763679
 O    1.92439616   5.82156939   0.37941371   0.14627173  -0.03081105   1.24693559
 O    1.90811312   6.00832691   4.68068669  -0.23608553  -0.21329161  -1.27752298
 O    1.81944017   5.79218733   8.57573976   0.23180608  -0.00628249   1.66142105
 O    2.09367663   9.86823994   0.33206024   0.46196698  -0.37957885   2.01381719
 O    1.87704539   9.74115961   4.46733427   0.41982856   0.09108620   1.38071690
 O    1.86923749  10.01808845   8.73746219  -1.10904383  -0.88994190  -0.49994525
 O    6.02575715   1.93384291   0.40953640  -0.73433093   0.91808389  -0.29581891
 O    5.70640576   1.89328162   4.39716437   0.50281312   0.56911728   2.29295568
 O    5.89161809   1.98771392   8.72036856   0.45599265  -0.11675297  -0.53706364
 O    6.01083200   5.81127982   0.48400776  -1.53342520   0.39859532  -1.02613879
 O    5.59617036   5.80171601   4.46517731   1.11514242   0.64436305   1.71654694
 O    5.95488902   5.91330931   8.62495096  -0.15402047  -0.46113694   0.69106424
 O    5.61714751   9.70885105   0.33976547   0.22103041   0.19084065  -0.27774681
 O    5.77850302   9.93819500   4.59696407  -0.14985534  -0.74078241  -1.22997684
 O    5.83427040   9.83546314   8.69109370  -0.30477047  -0.14960185   0.69762507
 O    9.63475207   1.89721483   0.39777907   0.43693642   0.12718071  -3.09109566
 O    9.82632076   1.91279552   4.51182010  -0.12885074   0.24842685  -0.75503234
 O    9.72453709   1.98498642   8.69094408  -0.13150489   0.20319191  -0.37710860
 O    9.84002848   5.89429877   0.52866814  -0.62701164  -0.55628390  -1.42819842
 O    9.65158529   5.91380096   4.44733560   1.20411623  -0.58749257   2.85004974
 O    9.61254578   5.99255893   8.68210427   0.40494740  -1.44120577   1.39099553
 O    9.66044674   9.85068094   0.29908238   0.06035964   0.00138175   3.35405078
 O    9.52059515   9.66779810   4.48375463   1.29978507   0.67964243   1.46484464
 O    9.73523637   9.66610073   8.83665760   0.78885541   0.35051238  -0.91543968
 O    3.91193449   1.96235872   2.36203766  -0.43478427   0.59992833   0.59469458
 O    3.84849968   2.06444675   6.67109068   0.92941624  -0.99973144  -0.76347195
 O    3.95208607   2.02629689  10.73847644  -0.35471231   0.02498086   0.99754450
 O    3.79548320   5.99320276   2.46984846   2.50623239   0.00891677   0.23909258
 O    3.87524789   5.71362836   6.67312296  -0.18524406   0.73960444   0.51800741
 O    3.94392699   5.85188793  10.60107908   0.54253100   0.06278019   1.10158834
 O    3.85088770   9.66665092   2.57078939   2.03410109   0.51979673  -0.21847567
 O    3.79943983   9.88657154   6.75730690   1.15874709  -0.48072002  -0.46639554
 O    3.82493550   9.77209856  10.53888870   0.76524139  -0.35811698   1.70807253
 O    7.82992099   2.09133543   2.62975056   0.24536016  -1.42934657  -0.92012172
 O    7.71955682   1.97424031   6.41185602   0.91519116  -0.32536253   1.27273656
 O    7.77823900   1.79838107  10.79115374   1.30450191   0.72277492  -0.27722989
 O    7.73263242   5.75966806   2.63259326  -0.08174696   0.48092878  -0.22400267
 O    7.79812749   5.93914445   6.56611012  -2.10386956  -0.38938034  -0.08412277
 O    7.78691314   5.87359085  10.93691713   0.61974999   0.13830927  -0.74397336
 O    7.77562856   9.94141415   2.47059654  -1.13522751  -1.19191905  -0.78442187
 O    7.67625632   9.63167339   6.68712452   0.54840593   1.07416705  -0.49672945
 O    7.75829197   9.91036984  10.82603921   0.35502047  -0.86752076   0.14730059
 O    0.08917631   1.91229216   2.42112352  -2.37640746   0.49464688  -0.20892767
 O   11.66173961   1.93513057   6.55876646  -0.84444851  -0.02607433   1.07672180
 O   11.68144081   2.11186775  10.88765606   1.30022246  -0.35873827  -0.06612522
 O   11.69360335   5.94065453   2.51187809  -0.08525601  -1.49560102   0.95979487
 O   11.60502404   5.86863922   6.63925987   1.18203804  -0.04295853   0.41954028
 O    0.00778449   5.90908345  10.73034731  -1.80619671  -1.20367884   0.46808545
 O    0.01757071   9.80812963   2.30788914  -1.23907254   0.69933486   0.79699680
 O   11.62559149   9.81881721   6.59469924   0.74487796  -0.77387484   0.22297381
 O   11.69420035   9.77796327  11.08927609   1.10347706  -0.03394733  -1.34453292
 O    1.92012347   3.95216801   2.58692298   0.39201461  -0.47507870  -0.47824977
 O    1.83397902   3.85835613   6.64753862  -0.47562544   1.12516757   0.02547292
 O    1.95121461   3.95288208  10.84960373   0.28427285  -0.26285571  -0.40830734
 O    1.78682725   7.80185000   2.43911484   0.78276676   1.61115117   0.27501810
 O    2.01862946   7.85608390   6.85349752  -0.64637106   0.71429057  -1.02106905
 O    1.91184733   7.73894195  10.74867527   0.75223901   3.88662621   0.22778509
 O    2.10444615   0.04496275   2.52033139  -1.51094939  -1.10133982  -0.63867202
 O    1.91682238   0.02802416   6.59117080  -0.06012107  -0.47126149   0.02686958
 O    1.87757216   0.12541808  10.78367294   0.29203152  -0.71304302   0.97348812
 O    5.74111405   3.87911087   2.42198381  -0.02913605   0.87838589   1.08518129
 O    5.85303512   3.95230849   6.60193068   0.39082173  -1.65619226   0.00796743
 O    6.02622539   3.90631561  10.78535612  -0.72231765   0.25005712   0.09569369
 O    5.90951657   7.84198987   2.36170103  -0.44488894   0.53467292   1.23786972
 O    5.65618702   7.80409755   6.59461196  -0.25498271   0.52309206  -0.13912938
 O    5.86415582   7.78527430  10.81455618  -0.17265920   0.42772143   0.23800905
 O    5.78000138   0.07765760   2.36141426  -0.01709295  -3.05306272   0.94405882
 O    5.83869527   0.07515252   6.68037934  -0.61135511  -0.06384881   0.00015408
 O    5.78550320  11.67891232  10.92024742  -0.46340341   0.67181416  -0.64396045
 O    9.73589191   3.85146130   2.42299372   0.87317202   0.82711201   0.68790311
 O    9.59276264   3.84640430   6.60624461   0.89212388   1.00085971   0.30444243
 O    9.65255689   3.88032829  10.86372997  -0.15169436   1.81716125  -0.27659369
 O    9.74518647   7.79129119   2.49194176  -0.83199784   2.56502638  -0.22047374
 O    9.68094394   7.78283945   6.65930842   1.08174183   0.92058397  -0.25701061
 O    9.82608664   7.80642704  10.94666711  -1.51081022  -0.92385941  -0.38553330
 O    9.83552167   0.03126673   2.58164902  -1.29681779  -0.19693427  -1.16768374
 O    9.67691708  11.64854695   6.65969492  -0.66744027   1.08204005   0.01063153
 O    9.89979932   0.04739759  10.76338751  -0.33091936   0.21399243   0.74051401
