# total energy = -399027.43321112
CRSYTAL
PRIMVEC
 11.70600000   0.00000000   0.00000000
  0.00000000  11.70600000   0.00000000
  0.00000000   0.00000000  12.46800000
PRIMCOORD
135 1
Pb    4.07368800   3.83768333   4.19258942  -2.06563701  -0.02779958  -0.37046148
Pb    3.84936592   3.81155554   8.26951321  -0.19865563   0.36034891  -0.18172686
Pb    3.87541177   3.77431876   0.09161486  -0.63352784   0.45957496  -0.47563375
Pb    4.01312116   7.76462492   4.23138984  -1.22010448   0.78136124  -0.40890439
Pb    4.04311193   7.90671235   8.46568472  -1.03298612   0.15022786  -0.52022641
Pb    3.93259558   7.70933748   0.03024737  -0.50887272   0.65543706  -0.45055187
Pb    3.84209650   0.04956320   4.15191881   1.70949834  -0.80437591  -0.22994312
Pb    3.81535999   0.00177931   8.44366624   0.08407317  -0.53232637  -0.66717786
Pb    3.93881147   0.00214220   0.04443595   0.20057917  -0.05187179  -0.78197981
Pb    7.80437849   3.86707710   4.22500622   0.92512009   0.94431561   0.61091225
Pb    7.81347406   3.77838074   8.35510603   0.72414184   0.72923005  -1.11545500
Pb    7.68633519   3.79855018   0.06238987   1.94289745   1.21941807   0.01553999
Pb    7.73448197   7.95866357   4.08113797   0.72231408  -0.15871618   0.16290248
Pb    7.80300889   7.74183334   8.20234810   0.63240245   0.74474210   0.23276059
Pb    7.68262439   7.64716691   0.01837783   1.53774437   0.21925589   0.67940153
Pb    7.74337853   0.07873456   4.03120363   0.19146828  -1.94973760   1.81137026
Pb    7.59509863   0.11299802   8.37791000   0.99882528  -1.09028533  -0.45662181
Pb    7.94002762   0.07388827  12.41585882  -1.15790862  -0.44393920  -0.67913016
Pb    0.26167592   3.80487142   4.21732594  -0.77442132   1.02074648   0.90272798
Pb   11.67033182   3.85962038   8.29569601  -0.15957819   0.18757331  -0.24125690
Pb   11.69494954   3.93602544   0.16945259  -0.13984791   0.35006874  -2.23915489
Pb   11.66945387   7.73466926   4.14831556   0.86026239   0.43604549  -0.54874432
Pb   11.54855430   7.77696304   8.26805446  -0.42960043   0.13070909   0.91363471
Pb   11.67449915   7.68832521   0.07620442  -0.42070504   0.28424129  -0.18960460
Pb    0.04347608  11.69638937   3.98024692  -0.46604397  -0.27265614   0.84775538
Pb   11.57618046  11.63195955   8.31441048   0.08167871   0.07447940   0.42683484
Pb    0.06050831   0.08273801   0.09015611   0.16637444  -0.80463531  -1.82019381
Ti    1.98692962   1.90535050   2.18118932   1.90757930   2.08885919  -0.31833428
Ti    1.86265872   1.89710948   6.33365672   1.02782208   1.57828242   1.89613382
Ti    2.05611208   2.00685323  10.46783357  -2.27195089   0.24018738   1.65074250
Ti    1.92494635   5.84139935   2.20394342   0.98016054   1.60526390   1.65737912
Ti    1.93163047   5.97420392   6.49752365  -0.20834118  -1.87357410  -2.52187969
Ti    1.93055352   5.94355762  10.40693986  -2.11016981  -2.38075873   0.13909765
Ti    2.02534871   9.76239429   2.18413177   0.10904330  -2.85425743  -0.50038439
Ti    1.91047773   9.78371092   6.27884740  -0.07750838  -0.04912216   1.00468770
Ti    1.89508434   9.79740694  10.52524871   0.28243747   1.36367177  -0.66923309
Ti    5.98064222   1.95098049   2.22194722  -3.99035260  -1.25215820  -0.83309735
Ti    5.80998045   1.97305801   6.25984616   0.19211878  -1.92659922  -0.20837710
Ti    5.89797445   2.00361067  10.53663199   1.24163459  -2.79995926  -0.74267889
Ti    5.80978145   5.80825967   2.30204165   1.59409378   0.53469288  -0.74060370
Ti    5.78034086   5.86016407   6.32169991   1.17187625  -0.07402046  -0.12752447
Ti    5.85316388   5.79048996  10.46822008  -0.62503153   0.73999710  -2.94397751
Ti    5.88697081   9.76194946   2.08181936  -1.49151949   0.95884593   1.04903293
Ti    5.71751476   9.80903099   6.41085858   2.43533625   1.26723127  -2.25051257
Ti    5.89378370   9.73328147  10.52615887  -1.02802162   2.80064567  -0.58622546
Ti    9.74799591   1.98165021   2.12765173   1.61769509   0.32199380   0.40473405
Ti    9.72652711   1.84279364   6.22146966  -0.13632009   1.67741270   1.04411632
Ti    9.90286629   1.99593153  10.52167039  -1.46769471   0.00529174  -1.22561970
Ti    9.76061498   5.81781176   2.35186378  -0.96929372   0.38436925  -3.06607056
Ti    9.75053611   5.80487663   6.26777581  -1.38940813  -0.68121333   2.73657016
Ti    9.63520860   5.86877969  10.54351433   3.69370007  -0.98558397  -2.15724471
Ti    9.79390684   9.80637373   2.12667923  -1.08704883  -1.04216485   0.08115194
Ti    9.71960886   9.75139065   6.33861899  -1.92855469  -0.44530004  -0.81732989
Ti    9.75788748   9.77345646  10.64608856   0.91712661  -0.22089210  -2.58837759
 O    2.06478622   2.10215177   0.39054763  -0.36026511  -0.14014323  -0.25209578
 O    1.90230694   1.97432225   4.54806457   0.56990328  -0.50928377  -2.55205776
 O    1.95471470   2.04318865   8.69487150  -0.05948215  -0.77189518  -2.24205617
 O    1.88892698   5.79060702   0.42793916   0.82430572   0.02082773  -2.53456230
 O    1.88708914   5.93521124   4.65159884  -0.29961765   0.50037242   0.02875736
 O    1.80471402   5.73178437   8.61048808   0.63810124   0.75604790   1.26788176
 O    2.02039707   9.83562703   0.37118483   1.47903243  -0.31365313   0.56428031
 O    1.85918204   9.68234866   4.46267124   0.06057163   0.42954855   0.96078943
 O    1.84467830  10.02486622   8.71492004  -0.71070099  -0.73198766   0.98953481
 O    5.98887154   1.92679589   0.39992357  -0.49833314   0.92941414  -0.29580250
 O    5.70756466   1.81528454   4.40095464   0.34183582   1.45925826   1.47756383
 O    5.87531164   2.04296624   8.71182798   0.70074806  -0.31281507  -0.00407456
 O    6.01322002   5.75068956   0.50837023  -1.12002441   1.12214749  -2.55798403
 O    5.60513716   5.89147762   4.40838557   1.61796646  -0.57689508   3.84628247
 O    5.88810629   5.90214179   8.61022625  -0.00922662  -0.47262073   2.25662241
 O    5.58349276   9.79148370   0.28415819   0.69439079  -0.89132640   0.40576766
 O    5.74982332   9.92236849   4.55528354   0.59523657  -1.15094475   1.29664311
 O    5.78531591   9.90056021   8.67737890   0.53610162  -1.11194314   1.13801472
 O    9.63265669   1.93819754   0.29981800   0.74549636  -0.08429266   1.95409949
 O    9.76009991   1.93541151   4.43069082   0.49782632  -0.02046058   0.74573580
 O    9.77491971   1.95850745   8.68232869  -0.31809084   0.66531417  -0.42002661
 O    9.80900758   5.86969276   0.49682486  -0.57916183   0.16684136   0.42226143
 O    9.73747222   5.90598136   4.49673382   0.34506832   0.10690426  -1.94993714
 O    9.71614388   5.90719878   8.65888885  -0.70899694  -0.18791252   2.95090146
 O    9.66625291   9.82477556   0.34739588  -0.06159725   0.50443899  -0.63510019
 O    9.50543588   9.72186812   4.51387732   1.20703876   0.51611593   1.33718116
 O    9.68103759   9.64992304   8.78232205   1.49956086   0.40052381   0.75596011
 O    3.89563974   1.94002367   2.39042730   0.00073430   1.22548002   0.63405462
 O    3.96938754   2.04675898   6.68776039  -2.88455522  -0.31386464  -0.56478315
 O    3.99251860   2.00677129  10.71238092  -0.88609453   0.49304939   1.30772143
 O    3.91508341   5.96026208   2.48476019  -1.80719992   0.06887239  -0.62859527
 O    3.82747570   5.77111653   6.62749008   1.18961913  -0.21829811   0.64999368
 O    3.92087788   5.88931201  10.58407273   0.11779901  -0.03390144   1.73912568
 O    3.89751270   9.64272385   2.65280389  -0.40015267   0.53299681  -1.77414453
 O    3.80245998   9.90655368   6.74932738  -0.05128515  -1.06376678  -0.25139341
 O    3.88869808   9.79233824  10.50902784   0.02277123  -0.16883274   1.94072648
 O    7.82619848   2.07775647   2.64689406   0.04606924  -0.96265311  -1.62104732
 O    7.72864067   1.92741631   6.36455243   1.58409695  -0.09796497   1.49568584
 O    7.85095667   1.79586428  10.73361392  -1.44205014   0.95315911   0.24778178
 O    7.75652437   5.71118181   2.66606984   0.79551644   1.30770148  -0.19462497
 O    7.77970225   5.96330564   6.58244320  -2.15537305  -0.17160631  -0.74180092
 O    7.80069110   5.83650625  10.88022514  -1.23389253   1.14047302  -0.04673968
 O    7.75906457   9.95254655   2.39951647  -0.92422217  -0.67605329  -0.10218320
 O    7.65621565   9.66474284   6.74556204   1.28508589   0.34571084  -0.81507910
 O    7.84464713   9.97121762  10.79912080  -1.84110934  -1.34298372   0.24513192
 O    0.05369542   1.89665294   2.37271027  -0.91555027   0.72866736   0.35076712
 O   11.67307102   1.99161202   6.50263553  -1.89662070  -1.12940268   0.74721238
 O    0.02972153   2.10622546  10.82411914   0.47908176  -0.22971964   0.67383443
 O   11.70488793   5.92569426   2.49485927  -1.05681889  -0.86823592   0.90780023
 O   11.58915071   5.83105125   6.64031965   1.74385073   0.80873780   0.24196326
 O   11.66269951   5.88207770  10.74376288   1.76215631  -0.41416021   0.77583405
 O   11.64802018   9.81946104   2.28685562   1.91655849   0.84764364   1.42601130
 O   11.68839418   9.82848637   6.56000080  -1.52802290  -0.53681995   0.27174624
 O    0.03582036   9.82354643  11.06808049  -0.76600084  -0.50221614  -1.14617581
 O    1.94897876   3.96458808   2.56445564   0.32937669  -1.36132920  -0.06096272
 O    1.74607867   3.84974051   6.57663311   1.35603746   1.01251356   0.55350129
 O    1.96715818   3.86836476  10.76060714   0.82069010   3.26516118   0.91283257
 O    1.75715254   7.80560762   2.39143721   1.31300918   0.89563243   0.44630571
 O    1.95837868   7.86920632   6.84660271  -0.21414773  -0.03150698  -0.81954076
 O    1.97861836   7.88081867  10.70871533   0.02872144  -2.34741600   0.27912115
 O    2.08677009   0.01651717   2.46028550  -1.57236414  -0.82629711   0.13070510
 O    1.89041365   0.01939684   6.62859973   0.21805467   0.05545549  -0.34732709
 O    1.85060154   0.13561401  10.90162022   1.24209751  -1.21635717  -0.11981035
 O    5.75337023   3.87743691   2.45648276   0.10156064  -0.56480310   0.88739950
 O    5.90595794   3.87681649   6.64725186  -0.24188744   2.15696935  -0.95032967
 O    6.03430253   3.93422272  10.84068911  -1.39057742  -0.33711476  -0.39991722
 O    5.91542810   7.85611901   2.35838454   0.19102132  -0.06160124   0.54826942
 O    5.63043382   7.80522133   6.55739498   0.15440218  -0.55305832   0.28204637
 O    5.90584088   7.79413574  10.80555428  -0.23212207   0.12552510   0.22358585
 O    5.68993542   0.03212126   2.43692047   0.96779719  -0.43632484  -0.35942306
 O    5.78608850   0.04595776   6.66341039   0.21416768   0.35119014   0.45167327
 O    5.78384095   0.02479331  10.91641974   0.47064132  -0.17329440  -1.00211765
 O    9.77772915   3.89802776   2.40944100   0.36678600  -0.59730378   0.82584216
 O    9.60731320   3.89287712   6.62331330   0.29525576  -0.56396904  -0.60213658
 O    9.64392957   3.89532368  10.91452460   0.28228582   1.58141517  -0.57339918
 O    9.69231047   7.90641970   2.41177252  -0.60362513  -1.25693114   1.07825720
 O    9.75176524   7.81112115   6.68430676  -0.02640281   0.82181948  -0.77940178
 O    9.83794481   7.79995363  10.95773869  -1.62225253   0.19575036  -0.50109075
 O    9.84267404   0.09419818   2.49206644  -1.56476176  -0.58779382  -0.22445983
 O    9.65220571  11.66689025   6.69056569   0.20113788   0.47213785  -0.57017865
 O    9.90211711   0.06693491  10.70182052   0.17412049  -1.63465578   1.37389209
