# total energy = -399027.23456800
CRSYTAL
PRIMVEC
 11.70600000   0.00000000   0.00000000
  0.00000000  11.70600000   0.00000000
  0.00000000   0.00000000  12.46800000
PRIMCOORD
135 1
Pb    4.07528002   3.84118343   4.19055714  -2.54589147  -0.13577846  -0.02407094
Pb    3.84131219   3.81649547   8.27664491  -0.15372987   0.76649664  -0.06766952
Pb    3.87147856   3.77655460   0.10157680  -0.47457758   0.70405975  -1.35309216
Pb    4.00561761   7.78149326   4.25168774  -0.77257182   1.24372682  -0.32508462
Pb    4.03400466   7.90730935   8.46165756  -1.02668527  -0.08150094  -0.59329958
Pb    3.94390358   7.68264780   0.02140756  -0.27366932   0.84038244  -1.19174715
Pb    3.84315004   0.04397944   4.14245560   1.11710749  -1.31355310  -0.11104639
Pb    3.79149146   0.00992669   8.47002359   0.19748971  -1.22752903  -1.09527796
Pb    3.97222039   0.00746843   0.04235380  -0.15830944  -0.42115470  -1.01898950
Pb    7.83752989   3.87235651   4.24214972   1.10248997  -0.28631150   0.06354953
Pb    7.80354737   3.78299290   8.34998168   0.50344578   0.43934396  -0.74382457
Pb    7.69334708   3.81980827   0.06315042   2.30788712   1.30631690  -0.81376775
Pb    7.73411908   7.97539145   4.08050210   0.01303725   0.37556465   0.00462391
Pb    7.78417394   7.75445240   8.20855716   0.31771136   0.49547185   0.13165846
Pb    7.67973301   7.65161519   0.02563421   1.25413566  -0.00742567  -0.05923603
Pb    7.74446719   0.08957431   4.03152780  -0.02711860  -1.67519361   1.67033991
Pb    7.60448684   0.10273186   8.39567690   1.17508978  -0.84528854  -0.80532216
Pb    7.95535078   0.07032965  12.41358965  -0.65984437  -0.33190962  -0.79891238
Pb    0.27635525   3.81327632   4.23888311  -1.07407732   0.99023016   0.47572651
Pb   11.66500559   3.85579252   8.28533510  -0.27457637   0.13574218  -0.24199937
Pb    0.00831126   3.93529967   0.18056158  -0.94839325   0.27570513  -1.71963877
Pb   11.68408637   7.74093197   4.15243000   0.98392923   0.34185486  -0.67542134
Pb   11.52628949   7.76797283   8.25789304   0.42918910   0.26886401   1.36589962
Pb   11.66882174   7.68205079   0.07372328  -0.43748956   0.40324360  -0.48904998
Pb    0.05664533  11.66267609   3.95640810  -0.23323128  -0.05031071   0.89308372
Pb   11.54946737  11.63219367   8.30484752   0.07053981   0.14840048   0.12218489
Pb    0.07763419   0.09543902   0.11702465  -0.11622662  -0.81832715  -1.50800320
Ti    2.01332665   1.91926894   2.20252207   0.09460269   0.53635737  -0.04491279
Ti    1.86459021   1.88762762   6.34600004  -0.45866601   1.33496740   0.29716781
Ti    2.04644292   1.97143087  10.45669964  -1.84841888   1.31547200   0.43773144
Ti    1.91867193   5.84155153   2.18854544  -0.36876383   1.41903225   1.30378121
Ti    1.89757772   5.98789994   6.47079226   0.34954659  -2.51364102  -2.45716643
Ti    1.91038408   5.90198961  10.41296190  -0.58316891  -1.21177065   2.81652926
Ti    2.07975820   9.73571632   2.14687739  -0.22777692  -1.85950094   2.99612399
Ti    1.86847660   9.75553457   6.28318626   1.09175460   0.70154825   1.77170310
Ti    1.86146471   9.81798608  10.52526118   1.40783731   0.13719345  -0.32887808
Ti    5.95465490   1.96070818   2.16586615  -2.61018679  -2.20801149   1.25821534
Ti    5.75430671   1.96210119   6.25124324   3.00192505  -1.34568261   2.07709882
Ti    5.90087754   1.96073159  10.50845431   0.93128842  -1.14942245  -0.11496885
Ti    5.81445214   5.78574903   2.29904933   1.75126034   1.97155113  -2.68564077
Ti    5.77190083   5.84614028   6.27620418   0.14411117   0.53553901   3.20608254
Ti    5.82520996   5.75869646  10.46582622   0.22151630   1.48722181  -0.28856904
Ti    5.89968353   9.78745684   2.06266852  -2.96109193  -0.11648059   0.04207072
Ti    5.73282620   9.83552167   6.41117028   1.04292338  -0.07060835  -2.15260923
Ti    5.89089232   9.72182129  10.49490160  -1.72405305   1.60536733   1.80952886
Ti    9.76903159   1.93834972   2.14544357   1.20037818   3.70166727  -1.21219797
Ti    9.70715368   1.82271785   6.18365422  -0.14795301   1.32553011   1.02456077
Ti    9.89960032   1.98811192  10.51931394  -0.97697925   0.41011295  -1.12345277
Ti    9.68724177   5.86350028   2.32478328   1.20230111  -1.84318221  -3.03495355
Ti    9.70281075   5.78351318   6.23533408   0.51258072  -0.16527957   3.60871338
Ti    9.68163460   5.86980982  10.54584584   0.84602224  -1.43819708   0.17183850
Ti    9.79316936   9.82415515   2.12343755  -0.82465228  -0.48851381   0.44179903
Ti    9.70698979   9.74388710   6.35697188  -1.43795924   1.28442690   0.88496870
Ti    9.74030507   9.76221870  10.60776193   1.04406424  -0.38609442  -1.91364140
 O    2.11979272   2.03233719   0.42015913  -0.74299412   0.56062987  -0.87905477
 O    1.95764120   1.90917836   4.50708226  -0.05214093   0.01163838  -0.31881593
 O    1.96904285   2.05091461   8.62823004   0.12449483  -1.08592936   0.02344608
 O    1.88680820   5.76090890   0.39083440   0.84178533   0.42759673  -0.40070791
 O    1.85341098   5.88135193   4.61648896   0.03073469   1.05937917   0.00322101
 O    1.81543672   5.70037717   8.68659275   0.45625126   0.89436164  -2.86771476
 O    2.00577628   9.78792508   0.42257792   1.22942374  -0.17700664  -3.49938433
 O    1.84515825   9.63977394   4.49750683   0.14770307   0.54649207  -0.41097968
 O    1.78854803  10.00074016   8.72697660   0.09274425  -0.12008861   0.28344928
 O    5.92818764   1.95924493   0.37735649  -0.25937431   0.37693932  -0.06920948
 O    5.72411694   1.79578234   4.46417987   0.15965186   1.30921541  -1.18520837
 O    5.88776682   2.08570484   8.69847475   0.37028363  -0.60502666  -0.40084094
 O    5.96427724   5.73582294   0.44196566  -0.75342714   1.16355218   1.28461234
 O    5.68213922   5.96083567   4.49237002   0.85007370  -1.21823283  -1.49333327
 O    5.81918137   5.87021953   8.67995977   0.32320200  -0.20601996  -0.68333883
 O    5.58035555   9.84108202   0.24636768   1.26654402  -1.02268621   1.40592244
 O    5.74586669   9.85702559   4.56113104   1.04253234  -0.81050642   1.47749427
 O    5.75726833   9.92180660   8.70297570   1.04892599  -1.15402620  -1.16220573
 O    9.66183975   1.97594939   0.26230178   0.53472872  -0.44417347   2.15080724
 O    9.71142637   1.95787532   4.37434793   0.51651931  -0.31596177   0.91955731
 O    9.81330368   1.95968975   8.66144479  -0.39502780   0.80992188   1.13326497
 O    9.75164818   5.85165381   0.47665164  -0.26861407   0.84654631   0.88462603
 O    9.84247504   5.90067854   4.48382944  -0.69848445   0.29268500  -1.05835925
 O    9.79542862   5.80873961   8.74691293  -0.95222703   0.80598732  -0.93150611
 O    9.67039684   9.81948445   0.37663334   0.10739806   0.68755961  -2.61258945
 O    9.54117430   9.80026320   4.59193946   0.37082786   0.11879859  -1.98479800
 O    9.68914985   9.65092976   8.75363318   1.37270044   0.38038206   0.80656783
 O    3.88216613   1.96676018   2.44779257   1.22960515   0.54017502   0.47587163
 O    3.97325052   2.01365441   6.67971853  -4.03090413   0.28241726  -0.42202546
 O    3.99336143   2.00656058  10.74092017  -1.53258611   0.39931308   0.73649968
 O    3.97149462   5.92837493   2.47790279  -2.77540589  -0.11537198  -0.15015813
 O    3.82085011   5.82265805   6.60928680   0.10475755  -0.77257182   0.73701972
 O    3.90330717   5.92712239  10.64186191  -0.12579694  -0.05149592   1.60311786
 O    3.93481972   9.64086260   2.66452381  -1.33345163   0.32439526  -1.70391264
 O    3.80739991   9.88253297   6.73037602  -0.35618212  -0.81887138   0.13720957
 O    3.95409950   9.80694733  10.56195450  -1.07774581   0.35690373   1.26279491
 O    7.81685709   2.02160279   2.59552590  -1.78020513  -0.14470377  -1.31989434
 O    7.79647694   1.87640156   6.38155878  -0.97617702   0.61702786   1.36441207
 O    7.87489544   1.83468138  10.68415337  -1.02309338   0.81887138   0.58763560
 O    7.80527986   5.71650804   2.69141729  -0.99357614   1.28443093  -0.27888180
 O    7.68111431   5.98009204   6.56922712   2.23258231  -0.02765880  -0.50294186
 O    7.77366195   5.84535598  10.81732408  -0.03114185   1.07613329   0.25250496
 O    7.70977060   9.93481196   2.32257644   1.42861870   0.12423683   0.97377033
 O    7.68738873   9.71533617   6.77144561   0.52732321  -0.26737242  -0.59628275
 O    7.86062582   9.97721110  10.78217678  -1.63854499  -0.93954453   0.32921268
 O   11.68679045   1.91072356   2.33686477   1.89343649   0.32396795   0.58189905
 O   11.61569992   2.00402038   6.47829799   0.83458542  -1.06994523   0.48417210
 O    0.10449946   2.08981365  10.78592965  -1.23153212  -0.09790433   0.71547238
 O   11.68207294   5.87350891   2.51440909   0.91631211   0.38709015  -0.09303854
 O   11.63824567   5.82652103   6.65243855  -0.97560861   1.11413642   0.08133162
 O   11.67386703   5.83607312  10.79212625   1.69491073   0.59433966   0.96225289
 O   11.64010693   9.86599239   2.32593034   1.37764282   0.05547079   1.15100272
 O   11.69147285   9.81575024   6.53773295  -2.03015424   0.09118011   0.67704999
 O    0.05281747   9.84856216  10.99741187  -2.03404445  -0.89206783  -0.20456062
 O    1.99268897   3.92594657   2.53676422  -0.01966472   0.00677260   0.01015486
 O    1.71090214   3.88112430   6.52622498   1.95954993  -0.36302325   0.66409740
 O    2.01848899   3.90204292  10.70513701   0.75575723   0.88315461   1.29295715
 O    1.78118496   7.84028080   2.36233690   0.77793749  -2.06164278   0.66616143
 O    1.88608243   7.88036214   6.80376266   0.22108495  -0.97612461  -0.27882134
 O    2.04989619   7.94421837  10.68179692  -0.68184725  -3.58085705   0.76212670
 O    2.00200694  11.66530994   2.40414210  -0.45500962   1.60662107   0.89123335
 O    1.87214058   0.01481980   6.65263804   0.29006465   0.94925595  -0.47406561
 O    1.87724440   0.09968830  11.01764743   1.76930044   0.24447863  -1.44750537
 O    5.77205301   3.85911702   2.53077958   0.58874421  -0.08017464   0.27325007
 O    5.95033539   3.87535324   6.65344846  -0.80761194   1.18836085  -1.34512226
 O    5.98374431   3.94256909  10.88150934  -1.13390192  -1.97351034  -0.57756942
 O    5.92796522   7.86428980   2.38239791   0.33217972  -1.51022848   0.43610279
 O    5.61110722   7.79140825   6.53306992   0.69474340   0.62737219   1.10648097
 O    5.93806750   7.81148404  10.80523012  -0.44905538   0.33540073  -0.07396239
 O    5.63735207  11.67061276   2.50182888   1.35324132   2.48239032  -1.07806428
 O    5.74023610   0.03198079   6.66461978   0.81746849   0.82623255   0.51748279
 O    5.80055712   0.07436822  10.86929070   0.75793011  -0.17297130  -0.82004449
 O    9.83473737   3.92694158   2.43138468  -0.89613542  -0.29123373   0.64694822
 O    9.63573537   3.92567734   6.61578263  -0.34713184   0.11848818  -1.00757284
 O    9.64787449   3.97054643  10.94177965   0.77996523  -1.59162058  -0.72560709
 O    9.61114106   7.97651522   2.37482983  -0.04220376  -3.26136386   1.75756128
 O    9.82320696   7.86561258   6.67710025  -1.40823641  -2.05586189  -0.76177195
 O    9.78175601   7.80024628  10.94815080  -0.52196157   0.94326946  -0.24026994
 O    9.78169748   0.12346318   2.38971662  -1.26911600  -2.70861116   0.93705722
 O    9.63467012  11.70482940   6.70020346   0.84068478  -0.73708422  -0.37286770
 O    9.90994842   0.02995565  10.69630967   0.06724624   0.31717116   1.10263913
