# total energy = -399027.84954533
CRSYTAL
PRIMVEC
 11.70600000   0.00000000   0.00000000
  0.00000000  11.70600000   0.00000000
  0.00000000   0.00000000  12.46800000
PRIMCOORD
135 1
Pb    4.06829153   3.84449623   4.18825056  -2.34344423   0.28241393   0.06570607
Pb    3.83211128   3.82425655   8.28385141  -0.66220195   1.05793991  -0.03157233
Pb    3.86571920   3.78130724   0.10751156  -0.27005218   1.04525798  -1.72746912
Pb    3.99510562   7.80295036   4.27174876  -0.18512449   0.02943414  -0.37861772
Pb    4.02088223   7.90760200   8.45529888  -1.12702071  -0.55026536  -0.84737428
Pb    3.95446239   7.65749161   0.00814160  -0.96122089   0.51678301  -1.55418011
Pb    3.84798461   0.03406446   4.13230664  -0.07489550  -0.41152228   0.48664595
Pb    3.76714298   0.01448032   8.49383747   0.03758208  -1.09842933  -1.56438895
Pb    4.00660091   0.01175282   0.03660605  -0.96533534  -0.16935488  -1.21284637
Pb    7.87585533   3.87724961   4.26014105   0.61093326  -0.27556142  -1.05578700
Pb    7.79474446   3.78940779   8.34195229  -0.11934113   0.26704547  -0.58647841
Pb    7.70826053   3.84635748   0.06129269   1.15189142   0.60679673  -1.22770329
Pb    7.73413079   7.99382840   4.07992858   0.15282348  -0.30829669   0.24823603
Pb    7.76547946   7.76942438   8.21545196  -0.20961982   0.25775667  -0.12917091
Pb    7.68103237   7.65647318   0.03307760   0.94117491   0.50590438  -0.80698054
Pb    7.74568461   0.09518149   4.03738776   0.38609954  -1.06148393   0.67411840
Pb    7.61827651   0.08895389   8.41153620   1.10804199  -0.88935419  -0.91204990
Pb    7.96921068   0.06524924  12.40858998   0.12604643  -0.81615525  -0.39625686
Pb    0.28803784   3.82547398   4.26300869  -1.22452361   0.87311720  -0.34686138
Pb   11.65877800   3.85233925   8.27347804   0.51136210   0.35397518  -0.67663197
Pb    0.02578832   3.93547526   0.18634673  -0.41773076   0.19977163  -0.88318251
Pb   11.70240626   7.74854087   4.15456202  -0.17298355  -0.08153456  -0.23531121
Pb   11.50450462   7.75943916   8.25164657   1.42284893   0.09777155   0.82251093
Pb   11.66165767   7.67707574   0.06943429   0.26977985   0.98938169  -0.75752618
Pb    0.06951023  11.62725374   3.93481352  -0.16248397   0.57611500   1.87512193
Pb   11.52186462  11.63290774   8.29530950   0.44712074   0.11231197  -0.28427611
Pb    0.09532196   0.10579883   0.13991590  -0.05876156  -1.11231468  -1.20212599
Ti    2.04440608   1.94354718   2.22346831  -0.45160321   0.01231023  -0.22241583
Ti    1.86235436   1.89739042   6.36346771  -0.31509768   0.65187903  -1.73208775
Ti    2.01092692   1.95254909  10.45282210   0.15544009   1.58394915  -0.27618337
Ti    1.90906130   5.86134638   2.19052786  -0.01125769  -0.21170280  -0.65647190
Ti    1.86729430   5.96538931   6.40886370   0.97690953  -2.40162800  -0.15060433
Ti    1.88205556   5.84151641  10.45319614   2.25227862   0.80585808   0.18137070
Ti    2.13037494   9.68149412   2.14111717  -2.70818764   0.28932164  -0.57884202
Ti    1.83867313   9.73593873   6.31258580   0.78772212   0.99911211   1.29090684
Ti    1.84521678   9.83919736  10.52310421   1.11353651  -2.72221652   1.80898160
Ti    5.88845747   1.94067921   2.12445992  -0.67945099  -0.74575694   2.08667017
Ti    5.73349345   1.93164218   6.27049384   1.03392668   0.43767738   2.34185439
Ti    5.91584951   1.90158117  10.47725938  -0.86439147   2.73649933   0.56243206
Ti    5.84191442   5.78929595   2.26048580  -0.48388949   1.54648116  -0.99950589
Ti    5.76504112   5.83915180   6.27364824  -0.72926234   0.98906151   3.37870682
Ti    5.79787645   5.74512921  10.46061460   0.04634092   0.56773521   2.85406293
Ti    5.87364938   9.81261303   2.04547514  -0.89908828  -1.19491282   0.68926605
Ti    5.76477188   9.86156752   6.38400251  -0.26667377  -1.93909464   1.51975932
Ti    5.86431970   9.73374971  10.48587476  -0.71185873   0.01553407   1.69322129
Ti    9.80787210   1.94256388   2.14974503  -0.12479149   3.23897009   0.17957476
Ti    9.68680865   1.82137166   6.15959098   1.14612457   0.73840024   1.11949105
Ti    9.88089413   1.98474059  10.50122287  -0.89466102  -0.22247103   0.09134594
Ti    9.62804453   5.88718152   2.25721919   2.87053913  -1.73337950   1.69626480
Ti    9.65961561   5.76158785   6.24817612   1.69355987   2.40257381  -1.14312522
Ti    9.74439046   5.85165381  10.55085798  -1.39823215  -0.39730203   2.01262847
Ti    9.78064394   9.83279417   2.12234036   0.02403531  -1.48568078  -1.85235997
Ti    9.67264439   9.75203448   6.38417706  -0.41323357   0.82524163  -1.06348227
Ti    9.73624309   9.74517476  10.54259170   0.15288236  -0.15188503   1.42237787
 O    2.14449238   1.98232916   0.41704213  -1.01444745   0.77978395  -0.25047726
 O    2.01267111   1.84123674   4.44583944  -0.83113361   0.52953118   1.55870674
 O    1.98632090   2.01332665   8.55955630  -0.42931231  -0.62407153   2.74118421
 O    1.91964353   5.74853566   0.33398032   0.14972476   0.71648472   2.30999868
 O    1.81927628   5.87024294   4.57717735   0.30702335   1.01024099  -0.67449010
 O    1.84698439   5.70697936   8.66444958   0.13258613   0.68123956  -1.12737033
 O    2.04466361   9.72957067   0.35801862   0.49190494  -0.12133211   0.22576480
 O    1.83826342   9.62021321   4.52094667   0.51530726   0.73207400  -0.52590252
 O    1.73347130   9.96899348   8.74943147   0.83481380   0.22257408  -1.02964662
 O    5.85393648   2.00987338   0.34749563   0.17555968  -0.32315729  -0.48204940
 O    5.74927313   1.83228165   4.49357941   0.10066786   0.56418751  -0.17005044
 O    5.91677429   2.10367355   8.66560910  -0.19244806  -0.81084474  -0.88186500
 O    5.88247571   5.76975863   0.41533402   0.38801692   0.49163629   1.75769818
 O    5.79944505   5.98319413   4.52533541  -0.51781346  -0.87623800  -3.18594962
 O    5.76028848   5.82746921   8.72131613   0.42291982   0.04135427  -3.13004021
 O    5.63199072   9.84987323   0.26472058   1.29067131  -0.42570572   0.91691879
 O    5.78464867   9.75504292   4.61928179   0.53703509   0.24407006  -1.75738168
 O    5.77159648   9.89365367   8.68707900   0.69277695  -0.78262138  -1.19769136
 O    9.71545323   1.99760549   0.31229846   0.04994015  -0.32839420   0.07672456
 O    9.68124830   1.96686553   4.35456121  -0.04402609  -0.71258004   0.53243485
 O    9.83526414   1.99584959   8.68290222  -0.54797996   0.56116608   0.81885283
 O    9.67994893   5.86662578   0.48045438   0.14829685   0.52959743  -2.07545663
 O    9.92044870   5.90586430   4.43418186  -1.72124960  -0.14305994   2.96152809
 O    9.83781605   5.73804708   8.80305634  -0.65230961   0.91917843  -2.98501873
 O    9.68041717   9.84185462   0.31603886   0.47055985   0.13298727   1.21972832
 O    9.59670757   9.88771873   4.59974443  -0.21654961  -0.34769310  -1.88043244
 O    9.75593258   9.66909747   8.74931926   0.36842360   0.36996192  -1.52966638
 O    3.91564529   2.01715451   2.52696437   0.56384893  -0.66396108  -0.22272497
 O    3.82579004   1.98971564   6.65004469   1.60596772   0.42463111  -0.63318367
 O    3.93327453   2.02064290  10.80096606  -0.27121880  -0.60873618  -0.59130314
 O    3.92071399   5.89110303   2.46413812  -0.12696648   0.00566381   0.50734333
 O    3.82292207   5.84496968   6.62054540  -0.13814689  -0.54850255   0.13048106
 O    3.88693048   5.96283740  10.77075610   1.31876586  -0.49948613   0.44213040
 O    3.92402679   9.65418403   2.60455273   0.26157671   0.22209197  -0.47928558
 O    3.79796488   9.82285578   6.71494063  -0.20359903   0.00433526   0.12584402
 O    3.97567366   9.83733610  10.67225890  -1.71887956   0.61543413   0.04762163
 O    7.74340194   1.95396552   2.48499708   0.05822425   0.16663522  -0.31354096
 O    7.82670184   1.84994600   6.46039394  -2.64824842   1.12907794   1.07349974
 O    7.85834315   1.91148445  10.65835708   0.49168413   0.47659536   0.81256707
 O    7.81354429   5.77509657   2.70467077  -2.05864554   0.09580633  -0.69420119
 O    7.66659887   5.99566102   6.53644874   3.67981979  -0.12821038   0.56094159
 O    7.74315611   5.89790422  10.76276411   1.22578591  -0.25885705   0.50473776
 O    7.70772205   9.91847039   2.28230480   0.57448836   0.12998423   1.25494772
 O    7.74087344   9.75860155   6.77238071  -1.01860238  -0.32260894  -0.20153444
 O    7.80852242   9.94278375  10.77763843  -0.09560760  -0.13347673   0.04527367
 O   11.68194417   1.93888819   2.32415988   1.53529339  -0.34498449   0.45750991
 O   11.58186958   1.97228541   6.47614103   1.17654132  -0.11697845   0.56200516
 O    0.13298016   2.06903550  10.77768830  -1.56880150   0.19513092   0.62305580
 O   11.69171868   5.83286568   2.52981954   1.14378029   0.86673207  -1.32566621
 O   11.65363906   5.86653214   6.66964439  -1.78915642   0.10279869   0.07259538
 O    0.03978869   5.81170123  10.88375358  -2.14359531   0.91766587   0.54629444
 O   11.68612321   9.91240668   2.41276996  -1.12087112  -1.92188976  -0.60240626
 O   11.61711634   9.80534360   6.54455294   0.64276688   0.42481880   1.01635379
 O   11.70001823   9.83649327  10.91130786   0.12786445  -0.83515238   0.19254375
 O    2.03534563   3.88289191   2.50916006  -0.89860618   0.82895494   0.26918366
 O    1.75529129   3.90213657   6.50252332   0.83501621  -0.72563367   0.52933245
 O    2.10222201   3.97301640  10.70241899  -0.28158221  -2.76272067   0.87737517
 O    1.84150598   7.80156905   2.36079086   0.19945514  -0.86710377   0.64421688
 O    1.81952211   7.85717255   6.74523787   0.48025715   0.04775044   0.02254851
 O    2.09336057   7.86929997  10.68520068  -1.44133083   0.03691596   0.65864321
 O    1.89595058  11.66216103   2.38101396   1.51391518   0.69736247   0.60249459
 O    1.86455509   0.04051447   6.65813642   0.00907902  -0.88003227  -0.19965755
 O    1.97669857   0.06777774  11.07564857   0.34283894   0.56567799  -2.40216531
 O    5.81673481   3.84014159   2.61963901   0.71494640   1.36799573  -0.70139227
 O    5.96221698   3.92146318   6.60351412  -0.96568128  -1.29545923  -0.77773777
 O    5.88336536   3.87995370  10.89847829   0.02267364   0.30537830  -0.70288275
 O    5.95284047   7.81737215   2.42558706  -0.34578309  -0.03751951  -0.05693987
 O    5.62116267   7.80237677   6.55569934   1.03426158   1.20952684   1.53781432
 O    5.95089728   7.84242299  10.80180142  -0.85361588   0.02123100  -0.31856442
 O    5.64057122  11.69273710   2.52385984   1.00664545   0.85565471  -1.12176541
 O    5.72583772   0.05223217   6.68748610   0.65632101   0.55260964   0.18039545
 O    5.84822395   0.10948622  10.78515664   0.05752870  -2.06622304  -0.09639516
 O    9.85589011   3.93846029   2.48067068  -1.76663367  -1.02586339  -0.22314819
 O    9.65170235   3.95536375   6.56714496  -0.52629998  -1.40822018  -0.30704175
 O    9.68435039   3.98848003  10.93983464   0.63896525  -2.18733434  -0.36054432
 O    9.52702175   7.92366263   2.40788250   1.17000163  -0.63734596   0.68829080
 O    9.83787458   7.84451837   6.63812528  -1.99930251  -1.62980061  -0.01486428
 O    9.69936919   7.83219195  10.92599516   0.66115310  -0.75605778  -0.26935295
 O    9.66395854   0.05399978   2.32089326  -0.07291556  -0.21757270   1.26860490
 O    9.65052005   0.01153041   6.69477988   0.57341374  -0.48218557   0.16189146
 O    9.91855233   0.00589982  10.73848891  -0.69032227   2.43301632   0.35432848
