# total energy = -399027.13660701
CRSYTAL
PRIMVEC
 11.70600000   0.00000000   0.00000000
  0.00000000  11.70600000   0.00000000
  0.00000000   0.00000000  12.46800000
PRIMCOORD
135 1
Pb    4.05386974   3.84876892   4.18604372  -0.64228337   0.98472566  -0.04484969
Pb    3.82089693   3.83550602   8.29082102  -0.46453792   0.91639923  -0.38676706
Pb    3.85911702   3.78930244   0.10784820   0.07784940   0.59108918  -1.20461767
Pb    3.98405516   7.82458305   4.29043829   0.50468813  -0.88306472  -0.73640943
Pb    4.00395536   7.90616216   8.44604762  -1.04156998  -0.56235496  -1.18607186
Pb    3.96174352   7.63460638  12.45826249  -1.26204891   1.46371749   0.04751149
Pb    3.85288943   0.02266282   4.12374113  -0.42559876   0.16592028   0.91239826
Pb    3.74288815   0.01529974   8.51251453  -0.35034089  -0.88974816  -1.67545877
Pb    4.03764523   0.01551045   0.02679373  -1.84881886   0.26253868  -1.23713792
Pb    7.91573767   3.88133501   4.27476601  -1.19650827   0.19071966  -1.36462329
Pb    7.78581278   3.79680598   8.33177840   0.08141638   0.34486023  -0.96918885
Pb    7.72711889   3.87493183   0.05542026   0.33234894  -0.29299645  -1.10198128
Pb    7.73469268   8.01118840   4.08021534   0.10121868  -1.00723937   0.62462208
Pb    7.74623479   7.78512212   8.22194779  -0.24098801  -0.36553052  -0.19545634
Pb    7.68556259   7.66301684   0.03799000   0.72608049   0.98358076  -1.04846421
Pb    7.74814287   0.09707786   4.04545456   0.58508773  -0.74502722  -0.51219821
Pb    7.63576527   0.07236649   8.42417875   0.70502995  -0.58058251  -1.21089604
Pb    7.98329300   0.05760523  12.40228117   0.29088437  -0.71550769   0.36286045
Pb    0.29572868   3.84063325   4.28621164  -1.24265992   0.74266301  -0.90449966
Pb   11.65379124   3.85019705   8.25942660  -0.15400004   0.70355852  -0.88862805
Pb    0.04175530   3.93608397   0.18907722  -0.10778639  -0.55764308  -0.57134474
Pb    0.01433985   7.75598589   4.15587116  -0.77455915   0.03556645   0.15368178
Pb   11.48722657   7.75128008   8.24811812   1.29279601  -0.10065657  -0.02513831
Pb   11.65530131   7.67540179   0.06276391   0.61444193   1.38720726  -0.49385493
Pb    0.08168447  11.59373946   3.91963997  -0.47629696   0.85075939   2.93656943
Pb   11.49594754  11.63397298   8.28498600   1.21142923   0.10880730  -0.15335112
Pb    0.11288096   0.11261172   0.15863036   0.13404480  -0.69872264  -1.25133144
Ti    2.06919938   1.96857461   2.24042479  -0.71573501  -0.13840536  -1.00050634
Ti    1.85538929   1.91487919   6.35734592   0.10669108  -1.36002714  -2.19610116
Ti    1.97534068   1.95510100  10.44704941   0.58110329   0.37123437   0.85133804
Ti    1.90179188   5.87759431   2.18622640   2.07971352  -1.90734954  -0.08556201
Ti    1.84895099   5.90997310   6.34389295   0.12126485  -0.57644514   1.55926539
Ti    1.88301545   5.79171909  10.49702116   2.42518960   2.00423246  -2.60173228
Ti    2.14254918   9.62946095   2.13089341  -4.11378377   1.13935809  -2.14327434
Ti    1.82079806   9.73048373   6.35949042   0.63085499   0.89447244  -0.24898995
Ti    1.84529872   9.82518527  10.54271638   0.68642628  -2.28992550   0.82057441
Ti    5.81414779   1.91168345   2.11073266   2.58945659   1.95795268   0.84906063
Ti    5.73070742   1.90741076   6.32036584   0.69084470   1.93574896  -0.05958465
Ti    5.91993491   1.87809893  10.45300912  -1.51614339   3.43744258   0.36426161
Ti    5.86337152   5.81406584   2.21288298  -2.07089734   0.13314789   4.13281730
Ti    5.75127486   5.84543792   6.31304712   0.76942568   0.53012403  -1.54158756
Ti    5.77286072   5.74029463  10.48672259   1.07175497  -0.16846635  -0.65501786
Ti    5.83600289   9.82126376   2.04165994   2.35167596  -1.52270696   3.20863520
Ti    5.79322916   9.86217623   6.37503802  -1.18092185  -1.73785401   2.28279981
Ti    5.82673174   9.74725843  10.49813081   0.04134471  -0.63166097  -0.94261631
Ti    9.84524936   1.99220902   2.15655256  -1.23014450   0.70174816   1.46252299
Ti    9.68005429   1.83205924   6.15304528   0.41109112   1.09272285   1.95036407
Ti    9.85018929   1.97929730  10.48613659  -0.06513558   0.03126376   2.13153597
Ti    9.60655231   5.88660793   2.21001534   1.62450430  -0.55799440   3.12915731
Ti    9.64038265   5.77116335   6.25186664   2.24801040   2.16796213  -0.31332368
Ti    9.78785484   5.82522166  10.57707818  -2.61614486  -0.83800424  -1.48520616
Ti    9.76684257   9.82167347   2.09943665  -0.36808072  -1.06549726  -0.47081217
Ti    9.63340588   9.77091626   6.39457537   1.28674909  -0.68562030  -4.01380919
Ti    9.73460425   9.72631640  10.49451509  -0.60915553   0.25653309   2.14801102
 O    2.12624272   1.96532034   0.40501051  -0.88670197   0.66174262   0.88494121
 O    2.03299273   1.79577064   4.44511630  -1.19122187   0.90542550   1.37295175
 O    1.98666038   1.94917777   8.59657379  -0.57387841   0.06598289   1.57950582
 O    1.95944393   5.76512306   0.35836772  -0.41601793   0.42573929   0.14148462
 O    1.79749142   5.90070195   4.51566024   0.27705872   0.26170790   0.32578124
 O    1.88498206   5.74091505   8.60107474   0.00097131  -0.03735614   3.18010351
 O    2.10239760   9.66686162   0.29461884  -0.80779859   0.14731661   2.70949387
 O    1.85234573   9.63221186   4.52441278   0.48502221   0.77547260   0.21556038
 O    1.71443735   9.94443430   8.73853444   1.39995415  -0.08970350   0.28854083
 O    5.78615874   2.04686434   0.30095258   0.33993342  -0.84825879   0.15583106
 O    5.77833913   1.89256755   4.51613402  -0.04159683  -0.35253151   1.07314787
 O    5.93663937   2.08735539   8.60495228  -0.89952738  -0.65997773   1.13156281
 O    5.81610269   5.82563137   0.44276362   1.22854080  -0.13406134  -2.72696917
 O    5.89298770   5.96797633   4.45520291  -1.86967514  -0.24378208   3.46071680
 O    5.71992619   5.78607680   8.65643266   0.45909859   0.17922101   0.96913098
 O    5.73632630   9.83888129   0.31066516   0.42238724  -0.04976823  -2.03229710
 O    5.84607005   9.66271770   4.61456888  -0.31024442   1.12897955  -1.64266571
 O    5.81424143   9.83123728   8.63021245  -0.19554314  -0.39418207   1.55953818
 O    9.77189956   2.00505050   0.36910267  -0.23722677  -0.11038619  -1.06908077
 O    9.65116388   1.94520943   4.35914944  -0.15581866  -0.93213444   0.30641292
 O    9.83396477   2.05590137   8.72832314  -0.53820863   0.13001077  -2.02382398
 O    9.61423145   5.90352310   0.41131932   0.44132570  -0.19708070  -0.76223799
 O    9.92911114   5.90510341   4.48399152  -1.24187461  -0.48641511  -0.48911411
 O    9.85082141   5.70730712   8.75687486  -0.45846207   0.77827079   1.20968501
 O    9.70916711   9.86914130   0.29025504   0.38510136  -0.65035971   0.96929218
 O    9.64349645   9.95891462   4.53638206  -0.52740849  -1.02917443   1.19963299
 O    9.83765216   9.70381747   8.69221582  -0.95773153   0.38970992  -0.53792757
 O    3.96578209   2.04185417   2.59734623  -1.88870453  -1.01307963  -0.67672558
 O    3.73567725   1.98359341   6.59814041   4.02387774   0.33249360   0.38818062
 O    3.86548508   2.00953390  10.83716066   2.03510356  -1.26156945  -1.40627385
 O    3.85894143   5.85443984   2.47079603   1.41815689   0.21938775   0.68086295
 O    3.82254748   5.84499310   6.63625508   0.44628144   0.12566674  -0.76931822
 O    3.91970728   5.97357180  10.91486124   0.60574561  -1.62860860  -1.68320031
 O    3.92044475   9.67738532   2.52236368   0.72312110   0.17391808   0.47484620
 O    3.78151795   9.76214846   6.70476674   0.40632550   0.49848828   0.01346193
 O    3.93088651   9.89002481  10.78440856  -0.23501963  -0.28763979  -1.18894859
 O    7.67323618   1.89378497   2.36017993   2.10300014   0.47851651   0.55265840
 O    7.76089070   1.86872243   6.58336583   0.30192010   0.60260849   0.16073307
 O    7.85182291   2.00826965  10.66709714  -0.60345167  -0.07343924   0.78060607
 O    7.75434705   5.83819191   2.68480925   1.88686938  -0.98039404  -1.58492448
 O    7.78463047   6.00452246   6.52537716  -1.72241227  -0.51975788   1.00646232
 O    7.75639560   5.93985852  10.73004808   0.09693252  -1.44045981   0.67858554
 O    7.72785637   9.90473925   2.29509697  -1.12144467  -0.64358121   1.01338962
 O    7.75375004   9.78900203   6.76300477  -1.38557050  -0.04876799  -0.16314275
 O    7.75302427   9.90031438  10.77543160   1.65363531   0.13250311  -0.18026672
 O    0.03206273   1.95476153   2.33190251  -0.51027212  -0.35796670   0.40544926
 O   11.59266251   1.93456868   6.49737403  -0.11725975   0.64005143   0.34203723
 O    0.09940735   2.05587796  10.79745008  -0.23829728   0.25123842   0.66573119
 O    0.03047072   5.82641567   2.49239060  -2.07566295   0.41832840  -1.29253148
 O   11.60688530   5.90999651   6.68842120   1.21671150  -1.21414890  -0.30475963
 O    0.03711973   5.82393400  10.99561648  -1.46814832   0.31459258  -0.78839308
 O   11.69418865   9.87909140   2.47433694  -0.94802671  -2.67762253  -1.99419698
 O   11.56359651   9.81018989   6.59274176   1.69676970  -0.05974585   0.53893194
 O   11.64373579   9.78959903  10.83449251   1.70422605  -0.31949873   0.69871437
 O    2.04091769   3.86962901   2.49362494  -1.22015448   0.15583106   0.61433447
 O    1.83548909   3.89658793   6.50157575  -0.53316195   0.17350476   0.26576260
 O    2.17300819   3.94516783  10.73670599  -1.44796162  -1.02806672   0.14618410
 O    1.91140250   7.73730311   2.38693626  -0.15425217   2.99798510   0.46568696
 O    1.77382189   7.83144277   6.68675048   0.65515839   0.08495856   0.08850073
 O    2.07683170   7.78430270  10.71655770  -1.38453719   1.05306037   0.31451405
 O    1.85272033  11.68764499   2.38274701   2.52760692  -0.91847411  -0.08538841
 O    1.85826897   0.03376010   6.65495708  -0.05118179  -1.25790327   0.10046644
 O    2.08820993   0.05583762  11.03336958  -1.84454096  -0.32492153  -2.02112498
 O    5.88871501   3.87171268   2.67788951  -0.14475814   0.62281172  -1.56570909
 O    5.93290516   3.92711717   6.52095102  -0.77782440  -0.01044881   0.21801552
 O    5.78241282   3.83130356  10.88394060   0.83823570   2.74504379  -0.95285019
 O    5.96221698   7.77214017   2.46483632  -1.08082328   2.14429938  -0.83805797
 O    5.67509221   7.85712573   6.64122982   0.96167464  -0.46232664   0.83114308
 O    5.92670098   7.87105587  10.78631616  -1.10274180  -1.01425346  -0.13278417
 O    5.68474966   0.04097100   2.49892384  -0.06642515  -2.04778431  -0.61335902
 O    5.73848020   0.08602739   6.71879324   0.06506532  -2.04003451  -0.05767097
 O    5.89905140   0.06768409  10.69557406  -0.54149454  -0.69525072   0.38655626
 O    9.80492219   3.91186426   2.52109194  -1.29058886  -0.18492900  -0.86549436
 O    9.64685607   3.92354684   6.50497951  -0.11725562  -2.62755257   0.41224429
 O    9.74779691   3.92538469  10.92234204   0.19593993   0.78719857   0.11640004
 O    9.49328506   7.83544622   2.46934974   2.12351750   0.57341135  -0.81215915
 O    9.77102161   7.76549116   6.59922512  -1.03613065   2.15275597   0.83206479
 O    9.64405834   7.83813860  10.89150868   1.35049177  -0.79508064  -0.45954911
 O    9.54571623  11.68106622   2.30519605   1.78216638   2.53355878   0.89865527
 O    9.68842408   0.00663730   6.69415648  -0.45126199   0.56223923   0.15832340
 O    9.89846483   0.06963899  10.79665213  -1.04885687   0.01741330  -0.26947837
