# total energy = -399027.35701924
CRSYTAL
PRIMVEC
 11.70600000   0.00000000   0.00000000
  0.00000000  11.70600000   0.00000000
  0.00000000   0.00000000  12.46800000
PRIMCOORD
135 1
Pb    4.03742281   3.85612028   4.18383689   0.89520684   1.08287741   0.40178887
Pb    3.80843004   3.84968198   8.29650643   0.45655496   0.72607346  -0.46703365
Pb    3.85286602   3.79921742   0.10382104   0.51588137   0.31298684  -1.35733670
Pb    3.97447965   7.84341800   4.30640980   0.16066270  -0.05012123  -0.96278199
Pb    3.98379763   7.90290790   8.43303103  -0.80564917  -0.42423641  -1.19923686
Pb    3.96484561   7.61691861  12.44054546  -0.73061793   2.21779952   0.91901773
Pb    3.85644805   0.01151870   4.11824274  -0.15896117  -0.78079200   0.75471417
Pb    3.71788413   0.01298195   8.52543138  -0.52425164  -1.03658727  -1.32608557
Pb    4.06219271   0.01985338   0.01289191  -1.69937113  -0.07477231  -1.36593419
Pb    7.95128879   3.88587694   4.28472794  -2.03153456   0.18882782  -0.94735194
Pb    7.77733763   3.80519918   8.31868700   0.36204593   0.32015230  -0.90622981
Pb    7.74704251   3.90237069   0.04588224   0.24849771  -0.43498989  -0.84276054
Pb    7.73562916   8.02508342   4.08240971  -0.05024276  -1.03285659   0.53476732
Pb    7.72652189   7.79950880   8.22793243  -0.09402288  -0.52801404   0.49498740
Pb    7.69242231   7.67256893   0.03922433   0.34672157   0.77690807  -1.47989459
Pb    7.75243897   0.09643403   4.05187558   0.45038823  -0.52787665  -1.00282612
Pb    7.65541964   0.05397637   8.43264452   0.35544061  -0.37787230  -1.25567806
Pb    7.99783185   0.04771366  12.39720670  -0.55514872  -0.37471759   0.92696526
Pb    0.29898295   3.85800495   4.30608563  -1.62909573   0.37840601  -1.38947558
Pb   11.64830113   3.85031411   8.24298131  -1.19686951   0.29188679  -0.20947343
Pb    0.05689116   3.93492508   0.18963828  -0.53221503  -0.80330296  -0.90575423
Pb    0.02960447   7.76355967   4.15747954  -0.57007676   0.54297378  -0.14036057
Pb   11.47464262   7.74315611   8.24490138   1.03747503   0.52468495   0.17815890
Pb   11.65091156   7.67829317   0.05449763   0.25470143   1.23794408  -0.29874576
Pb    0.09211451  11.56326874   3.91391716  -0.56497745  -0.02058220   1.98024023
Pb   11.47439679  11.63536600   8.27433833   1.53214009   0.02377390   0.31412296
Pb    0.13067408   0.11697806   0.17286882   0.16145534  -0.03790930  -1.42169373
Ti    2.08171310   1.98934105   2.24281865  -1.96865713  -1.49581607  -1.37535075
Ti    1.85123366   1.91269016   6.32208642   1.02867673  -2.89335015  -0.13410929
Ti    1.94774963   1.96247578  10.45595156   0.17589195  -1.17533086   3.02332186
Ti    1.92114190   5.87016100   2.18163817   1.39744953  -0.64877528   0.98009323
Ti    1.83506768   5.84827078   6.30056665   1.00453294   2.17382917   1.60896269
Ti    1.91718527   5.77081217  10.50687088   0.74749586   2.23383725  -1.21759967
Ti    2.09991593   9.59566573   2.09519753  -1.57813431   2.49941898   0.93337507
Ti    1.81290822   9.73748392   6.40282919   0.91589473   0.20898728  -1.24793662
Ti    1.85570536   9.77906363  10.57285153   0.39276863  -0.86531377  -1.18201017
Ti    5.77831572   1.90772682   2.10977262   5.28373367   1.81838857  -0.35834167
Ti    5.73839826   1.90862818   6.37142230   0.91731091   1.25802428  -0.54607565
Ti    5.90205985   1.90183870  10.43506766  -1.78282548   1.35404460   0.68956978
Ti    5.85673421   5.84227730   2.21512722  -1.56136206  -0.05915203   1.88293054
Ti    5.74716605   5.85838476   6.33678619   1.09249477  -0.69063192  -0.73758259
Ti    5.76493576   5.73481622  10.50606046   2.65739200   0.61524135  -2.42899034
Ti    5.82835887   9.80784869   2.07629604   1.84690245  -1.46834848   0.23163563
Ti    5.80460740   9.83837794   6.39541073  -1.59015072  -0.72016038  -0.28361163
Ti    5.79034949   9.75122677  10.50031271   0.74372818  -1.14251559  -0.73887195
Ti    9.86461108   2.05063367   2.18135141  -1.84285470  -2.14151063   0.31532777
Ti    9.67956263   1.85805826   6.17454011  -0.40671380   0.82638461   2.22927693
Ti    9.81847774   1.97596109  10.49673439   0.42511360   1.22636098   0.47248701
Ti    9.61069624   5.87800402   2.20320781   1.42302008   0.58939603  -0.16419788
Ti    9.65276760   5.80946539   6.25320072   1.26346178   0.02386373   1.77288050
Ti    9.79321619   5.78816047  10.58611748  -2.96314469  -0.41011158  -1.67215190
Ti    9.74773838   9.79663434   2.07128390  -0.82541759   0.38880015   1.78199057
Ti    9.61169125   9.78211890   6.35207196   1.61993282  -0.27776195  -2.25013392
Ti    9.72486485   9.70954170  10.47548892  -0.71111372  -0.60414969   0.46059214
 O    2.07130646   1.97669857   0.42563258  -0.27634577   0.31385346   0.35563612
 O    2.00251030   1.78975375   4.50097294  -1.04414905   1.00306392  -0.09633210
 O    1.96354103   1.88825974   8.68876218  -0.27913586   0.62482700  -2.37815574
 O    1.98337099   5.79964405   0.39265472  -0.23329489  -0.01192130  -1.02389448
 O    1.78720184   5.94121642   4.46894264  -0.00003171  -0.70968168   1.16301324
 O    1.92266368   5.77384403   8.65940004  -0.09756333  -0.52843149   2.40466688
 O    2.12568083   9.61258090   0.32979107  -1.61663016   0.66843802  -0.43114823
 O    1.88550883   9.67699902   4.53600802  -0.04817662   0.54120356   0.66170587
 O    1.75497523   9.91562583   8.73774895   1.41198654  -0.59096017   1.02017964
 O    5.73345833   2.04894800   0.26563074   0.28993161  -0.67311459   1.68362931
 O    5.80614088   1.93845507   4.57242704   0.07246837  -0.82586675  -0.74923967
 O    5.91821413   2.04500308   8.59082604  -1.18938171   0.11505424   2.02479184
 O    5.80252373   5.87594376   0.38539835   1.43027537  -0.44179602   0.23489602
 O    5.91014869   5.94333520   4.50431436  -1.55224142   0.64768672   1.96923840
 O    5.69955775   5.75328829   8.62042507   0.32905100   0.33915451   2.04374649
 O    5.85805699   9.82513845   0.28980619  -0.42216498   0.11017686  -0.15580118
 O    5.89317499   9.61900750   4.54882512  -1.05847469   1.39288921   1.31894125
 O    5.84872731   9.75321679   8.63219486  -0.81085417   0.16899070   1.82551175
 O    9.81870015   2.00732147   0.38504924  -0.16926548   0.05917317  -0.48979297
 O    9.61580005   1.88584831   4.37586902   0.02095210  -0.43766372  -0.06092754
 O    9.81013136   2.12051849   8.70423497  -0.26439277  -0.36842932  -0.44932081
 O    9.56823857   5.93182820   0.31883170   0.54391967  -0.72365327   2.91298119
 O    9.88469858   5.88365801   4.51484982  -0.43425009  -0.64646606  -2.62462429
 O    9.84486306   5.70925032   8.74490558   0.01153026   0.21632712   0.99783250
 O    9.75327532   9.87041726   0.30126428  -0.01495975  -0.71562119  -0.80680114
 O    9.66782152   9.98532335   4.51583479  -0.48969257  -1.33506353   1.44985884
 O    9.87810810   9.75318167   8.61934036  -1.72412262  -0.00068695   2.26397340
 O    3.94620966   2.02489217   2.63915143  -1.02494076  -0.52544060  -0.61969598
 O    3.79850335   1.99143643   6.56253180   0.46390009   0.05531037   1.09031237
 O    3.88009417   1.94833493  10.81561596   2.18475703  -0.62140809  -1.07791549
 O    3.85486774   5.82701268   2.50555681   1.43800096   0.21856765   0.41154362
 O    3.83483878   5.84937114   6.62118127  -0.57296197   0.52017748  -0.85012152
 O    3.96742093   5.91807365  10.98832270  -2.64891076  -1.41257837  -2.45378938
 O    3.93951383   9.70734097   2.46026057  -0.86167820   0.01259240   0.87699727
 O    3.78265343   9.72118917   6.69585212   0.84833544   0.22800006   0.02133785
 O    3.87628972   9.92777666  10.84572618   1.29531003  -1.50572406  -1.62103195
 O    7.68059925   1.85639601   2.25994968   0.49111932   0.96202634   1.06546577
 O    7.70353130   1.91285405   6.71156180   2.03881628  -0.18072176  -0.78788348
 O    7.82263985   2.10123871  10.70886494  -0.80895183  -0.43930713   0.48356282
 O    7.75956793   5.86232968   2.60217134   1.33855643  -0.80337165  -0.91959900
 O    7.84069051   5.98893007   6.55655963  -3.09314810  -1.25521305   0.82122189
 O    7.77527738   5.92242829  10.72634508  -0.71175311  -1.48929001   0.56420066
 O    7.71344629   9.86510273   2.35252458   0.75567062  -0.89880542   0.82471479
 O    7.71626743   9.81593753   6.74562438   0.72459387   0.00296976  -0.35402442
 O    7.76633399   9.86235182  10.76529511   2.07080191  -0.05981256  -0.37644555
 O    0.06983800   1.95547559   2.35930717  -1.32228090  -0.16226384   0.80398463
 O   11.60798566   1.92334262   6.53224703   0.66968510   0.82091012  -0.14154424
 O    0.05506502   2.05237786  10.84476614   0.87243167  -0.08488110   0.35273506
 O   11.70588294   5.83937422   2.40187292  -1.44949951   0.12465574  -0.37655652
 O   11.60351397   5.90285585   6.69367022   1.61041586  -1.67363149  -0.64989026
 O   11.68598274   5.84878584  11.07261884   1.69664445  -0.54888687  -1.82747221
 O   11.66302727   9.74052748   2.45678200  -0.01372323  -0.60077304  -1.14803765
 O   11.57632093   9.81226185   6.66075470   0.49108233  -0.57745888  -0.65048210
 O   11.65299523   9.73014426  10.78942069   0.85682725   0.39979142   1.19335548
 O    1.99600177   3.86909053   2.50465912  -0.71479685   0.65976126   0.78335487
 O    1.89455757   3.89494909   6.51280942  -1.01638026   0.20195393   0.12546423
 O    2.18313388   3.87624290  10.77923434  -1.62122218   1.59665036  -0.01980013
 O    1.97280047   7.77491449   2.43366632  -0.61328617  -0.14320879   0.49679990
 O    1.75663748   7.80563104   6.63358693   0.59677286  -0.83037423   0.30255571
 O    2.00369261   7.74045203  10.76185394  -0.33141835   0.48766870   0.12297006
 O    1.91182392  11.68055116   2.38460474   1.23867859  -0.51344004   0.11422461
 O    1.85169020  11.68935407   6.65489474   0.32584874   1.04657981   0.06979453
 O    2.12260216   0.03388887  10.90903868  -2.62472469  -0.21305616  -0.13683597
 O    5.95223176   3.92868578   2.67007207  -1.27189018  -0.57614310  -1.52204186
 O    5.87081653   3.93009050   6.44898572  -0.34948524   0.83377729   1.15096513
 O    5.71740940   3.88462439  10.83070224   1.04319789   0.38072580  -0.45169344
 O    5.92782475   7.80508085   2.47103292  -0.86777095   0.38977774  -0.59177923
 O    5.76740573   7.89237250   6.75976309   0.11734761  -1.74395974  -0.43687637
 O    5.85742487   7.85946693  10.76505822  -0.63497279  -0.89195174   0.04633769
 O    5.72719562   0.02420801   2.44805440  -0.69843149  -0.35877498   0.08433154
 O    5.75523149   0.04253960   6.74702080  -0.18136644  -1.59486428  -0.27548972
 O    5.92768428   0.00338303  10.62347161  -0.51469770   2.38832794   0.63305988
 O    9.70091438   3.88081994   2.52690203  -0.08516117   1.34467032  -0.56455471
 O    9.63721033   3.79802341   6.45897259   0.37040564   1.34743928   0.45414005
 O    9.81854797   3.88959944  10.90987404  -0.33952441   1.74821357   0.43942338
 O    9.54782331   7.77278400   2.49932281   1.65752506   1.42416148  -1.01621644
 O    9.66285817   7.76841766   6.59247994   0.70907928   2.38844419   0.46154859
 O    9.64639954   7.81634203  10.83787134   1.37501784   0.77748405  -0.49553168
 O    9.50397263  11.69533583   2.32785041   2.75446389   0.67308288   0.24716079
 O    9.70778580   0.01984167   6.69921848  -1.01336294   0.08488639  -0.15989120
 O    9.83685616   0.13288651  10.84339466  -0.37350221  -2.34907116  -0.65251125
