# total energy = -399027.82505508
CRSYTAL
PRIMVEC
 11.70600000   0.00000000   0.00000000
  0.00000000  11.70600000   0.00000000
  0.00000000   0.00000000  12.46800000
PRIMCOORD
135 1
Pb    4.02390238   3.86681957   4.18290179   1.33266369   0.53875859   0.67979447
Pb    3.79754346   3.86610550   8.30057100   0.66325120   0.59955071  -0.31860885
Pb    3.84841774   3.81030300   0.09514331   0.79274985   0.89924499  -1.82287675
Pb    3.96558309   7.86163254   4.31891520  -0.33594256   0.58143164  -0.80523965
Pb    3.96128699   7.89816697   8.41636132  -0.74140235  -0.65257533  -0.87134689
Pb    3.96539579   7.60650027  12.42572101  -0.53198421   1.35504398   0.14698944
Pb    3.85944479  11.70416216   4.11538757   0.31739787  -1.27924384   0.32615340
Pb    3.69177975   0.00749184   8.53376000  -0.33305952  -0.55558561  -0.66855619
Pb    4.08067648   0.02375147  12.46288812  -1.04892493  -0.64560841  -1.01960811
Pb    7.97952367   3.89094563   4.29117390  -1.98433205   0.24215509  -0.94094520
Pb    7.77003309   3.81455228   8.30301473   0.20627163   0.44229582  -0.16345671
Pb    7.76757483   3.92801854   0.03375088   0.21817874  -0.09888979  -0.22140125
Pb    7.73651881   8.03513887   4.08629972   0.20938774  -1.44027860   0.31314678
Pb    7.70690263   7.81199910   8.23557532   0.48944290  -0.35328640   1.39623750
Pb    7.70040580   7.68442711   0.03562108   0.22447177   0.27715185  -1.52694207
Pb    7.75809297   0.09411624   4.05495517   0.15469612  -0.17315974  -0.85656181
Pb    7.67591685   0.03450929   8.43672156   0.16462716  -0.58934606  -1.03648580
Pb    8.01040409   0.03663978  12.39514948  -1.15272957  -0.27538352   0.77119039
Pb    0.29672369   3.87646531   4.32117191  -1.91072587   0.18026347  -1.16376517
Pb   11.63943968   3.85127400   8.22619938  -0.59093199  -0.37730835   0.51130131
Pb    0.07003700   3.93146010   0.18705740  -0.72466653   0.05423054  -1.32145581
Pb    0.04264496   7.77259670   4.15840217  -0.37997859   0.40240448  -0.91874224
Pb   11.46585141   7.73688170   8.24247012   0.95438756   1.01465273   0.79792311
Pb   11.64751682   7.68518800   0.04517156  -0.02286165   0.80476843  -0.64448357
Pb    0.10046089  11.53352380   3.91486472  -0.70030003   0.02505559   0.95771649
Pb   11.45809033  11.63685266   8.26498733   1.23770577  -0.02210668   0.90967258
Pb    0.14837355   0.12078251   0.18195799  -0.64109891  -0.28394143  -1.87926577
Ti    2.06638994   1.98941129   2.22830590  -2.27103999  -1.74469012   0.54630820
Ti    1.86030581   1.87237470   6.28924571   0.82326751  -1.41548648   3.81962260
Ti    1.92415034   1.95430499  10.50103585   0.27940153  -1.42801681   0.08334468
Ti    1.95892886   5.85304682   2.18844570  -0.59158055   0.68668033   0.28767571
Ti    1.83779518   5.81695723   6.28090462   2.93906923   2.96246290   1.23131140
Ti    1.96222996   5.78197970  10.50562408  -0.65224599   1.66948281   4.40311138
Ti    2.03377703   9.59801864   2.07270526   0.35178661   2.64855102   2.58201309
Ti    1.81852710   9.74679019   6.42857561   1.16746904  -0.91063021  -1.14183076
Ti    1.87027933   9.71943327  10.58811236  -0.83397378  -0.58393466  -1.01912169
Ti    5.81511938   1.92928927   2.10610703   4.03437614   0.72154535   0.50491707
Ti    5.75935200   1.92782602   6.41311529   0.89917912   0.09624996  -1.15902260
Ti    5.85988313   1.94601715  10.42874639  -0.75763655   0.16538718   1.81927928
Ti    5.82992747   5.86882651   2.24409038   0.85129228  -0.41065839  -1.61952870
Ti    5.75758439   5.86277451   6.35407931   0.24760196  -0.64408835   2.94183573
Ti    5.79159032   5.73979127  10.49271970   1.18850662   1.93815275  -1.41245144
Ti    5.84550816   9.77502506   2.11483463  -0.39467753  -0.09111724  -2.40293527
Ti    5.79376764   9.80364623   6.41357660  -1.05110874  -0.19031611  -1.19484526
Ti    5.76526353   9.74025824  10.49454002   1.27099501  -0.33776156   1.68601089
Ti    9.85755236   2.07972308   2.21000287  -1.75403847  -2.76680633  -1.17529733
Ti    9.67468123   1.89211102   6.22552176  -0.04580436  -1.30619951   0.70577730
Ti    9.79250212   1.98774904  10.51557354   0.10667755   0.53445683  -0.55004248
Ti    9.63683573   5.87712607   2.19681173   1.94441031   0.97008974  -1.21556869
Ti    9.68104930   5.85108022   6.27309965  -1.15400135   0.13850752  -0.72580658
Ti    9.75868349   5.74820789  10.57381157  -0.78978574   1.71123369   0.28936297
Ti    9.71874262   9.77559866   2.06490029   0.06868627   0.38243094   0.83009763
Ti    9.61229996   9.79000874   6.28267507   0.65434367   0.82416941   3.14591341
Ti    9.70667373   9.68561464  10.46590103   0.69096182  -0.51062235   0.54409906
 O    2.00533145   2.00122264   0.45464562   0.35410216  -0.12916931  -1.64380906
 O    1.92946486   1.82495369   4.54215474  -0.30467500   0.46806078  -3.03918013
 O    1.92875080   1.85615018   8.70099329   0.08499648   1.18174744  -0.70092832
 O    1.99775767   5.83333392   0.39663202   0.24579309  -0.35035776   1.10684920
 O    1.77749757   5.95202105   4.46568850  -0.17869781  -1.14746510   0.06207403
 O    1.95510100   5.78515202   8.79378014  -0.28315101  -0.48827246  -4.65303395
 O    2.08309441   9.58720229   0.34734601  -1.13476757   0.91063528  -2.33776033
 O    1.91640097   9.74394563   4.57399801  -0.47118196   0.11317325   0.43394565
 O    1.85445281   9.86282006   8.77021562   0.88380122  -0.77427104  -0.98366385
 O    5.69417299   2.02301921   0.29733686   0.14262687  -0.12464461   1.18890184
 O    5.83740761   1.94902559   4.60257467   0.37815452  -0.86453704  -0.86844865
 O    5.85249664   2.00815259   8.64654553  -0.39830033   0.79779644  -1.52201709
 O    5.84700653   5.90709343   0.33612481   0.47730779  -0.41733650   3.12644149
 O    5.86263404   5.94619147   4.61781056  -0.35416296   1.14465300  -4.06395137
 O    5.69357599   5.73551858   8.66403814   0.12600253   0.42085796   0.14429894
 O    5.96046108   9.81584389   0.26078069  -0.89950847   0.05227980   1.86693305
 O    5.89573861   9.63337076   4.53151954  -1.11606074   0.73281404   1.67971786
 O    5.85057686   9.68328514   8.70303804  -0.53057562   0.52107527  -0.73642670
 O    9.85672124   2.01164098   0.38046102  -0.24608697   0.07117410   0.45084867
 O    9.58156000   1.81075432   4.39403490   0.07044447   0.63065106   0.63541390
 O    9.77592643   2.16829067   8.66368903   0.18716452  -0.79067751   2.09985126
 O    9.54617276   5.93061078   0.33460372   0.44811257  -0.58172045   1.35566214
 O    9.81916839   5.83650625   4.46196056  -0.28706768  -0.20825784   2.07851980
 O    9.83815552   5.72171721   8.76616352   0.13279211  -0.08302547  -1.68463270
 O    9.79481991   9.84197168   0.28990594  -0.69208666  -0.31675438   0.31029921
 O    9.67183667   9.95623394   4.54220461  -0.04929036  -0.83238278  -2.27240297
 O    9.84845680   9.80187863   8.63152159  -0.99568242  -0.27821082   1.20995968
 O    3.88772648   1.98636773   2.65280389   1.12483147   0.22894580  -0.64076956
 O    3.88531505   2.00105876   6.57148382  -2.06580707  -0.35768950   0.80930326
 O    3.97371876   1.86323231  10.75074496  -1.73617781   0.51984403   0.15861280
 O    3.90781398   5.80985168   2.55706212  -0.16389246   0.24778436   0.00188994
 O    3.82398731   5.87476145   6.57301739  -0.94074759   0.47136943   0.00479324
 O    3.91572724   5.80848208  10.96146662  -1.59899274   0.41828907  -1.10647425
 O    3.92891990   9.73712104   2.43582329  -0.61062685  -0.24425277   0.76328103
 O    3.81660083   9.69013315   6.68803469   0.24839239  -0.27533792   0.02132639
 O    3.87483818   9.90545332  10.83954205   1.55256009  -1.16671408  -0.89476589
 O    7.71144456   1.85873721   2.20752174  -0.56529877   0.67354704   1.38101161
 O    7.72471916   1.94956406   6.80428632   0.85215365  -0.61526302  -1.37370520
 O    7.76982238   2.17365202  10.77049427   1.59356614  -0.72027357   0.06465812
 O    7.80751570   5.85473249   2.48524644  -2.75953539   0.39582264   0.80674450
 O    7.78592984   5.92190152   6.62100672   1.36586171  -1.21343048   0.17861674
 O    7.76846449   5.84374055  10.74656818  -0.10422012  -0.59627245   0.22186234
 O    7.72901527   9.79066428   2.44339136   1.72054657  -0.18311104   0.19089879
 O    7.70614174   9.84077767   6.71431723   1.62690097  -0.37275832  -0.23619647
 O    7.85643508   9.82360496  10.74039652  -0.95731620  -0.03482955  -0.14338184
 O    0.05486602   1.94814764   2.42018842  -0.62314705  -0.19378183   0.85328862
 O   11.64641646   1.94606397   6.56093590   0.14765319   0.41292327  -0.41373903
 O    0.04314832   2.04467531  10.90498658   0.31547247  -0.52839181  -0.35165994
 O   11.62429212   5.85733122   2.29792721   2.11495048  -0.14335650   0.82025780
 O   11.65423607   5.82786722   6.67279879  -1.82757372  -0.75270144  -0.42128865
 O   11.68710652   5.85086951  11.07298042   0.86605203  -0.93688158  -1.59211195
 O   11.63247461   9.57916027   2.39192346   1.16107467   1.84000272   0.42446050
 O   11.61229347   9.79146029   6.70218587  -0.33287711  -0.44965796  -1.08187975
 O   11.70060353   9.68904449  10.79468219   0.06055397   1.02710705   0.98471775
 O    1.92252320   3.89443402   2.54722487   0.30674734   0.47578773   0.27580913
 O    1.91129715   3.89878865   6.52956641  -0.64713860  -0.57254944   0.06004729
 O    2.12589154   3.85922237  10.82182502  -0.86443570  -0.19159802   0.28207177
 O    2.00876131   7.80771470   2.50202837  -0.51377393  -2.70345545   0.54111468
 O    1.76499556   7.75274333   6.59533511   0.29103503   0.33799463   0.67378012
 O    1.91883581   7.72414557  10.81173841   1.06071550   0.99591550  -0.05099282
 O    2.02079507  11.65353371   2.39130006  -0.93659784   0.48508034   0.28618605
 O    1.85894792  11.67660623   6.65757536   0.58324050   1.15584061  -0.03465221
 O    2.04919383   0.00757378  10.78094245  -1.43419838   0.88297532   1.70132799
 O    5.96231063   3.96227029   2.59960294  -1.56771505  -1.10949917  -0.54025838
 O    5.79550013   3.95751766   6.42746596   0.28585164  -1.05394618   1.73493136
 O    5.69736873   3.94818797  10.76224045   0.71145218  -2.84654848   0.85177870
 O    5.85836135   7.85286475   2.45352785  -0.07522252  -1.69253193   0.20980323
 O    5.86138150   7.85835486   6.85764936  -1.15041401  -1.11664343  -1.52315713
 O    5.76317986   7.81293558  10.74619414   0.24443517   0.07682364   0.21148542
 O    5.74169935  11.69760680   2.40133680  -0.42614269   1.30301246   0.60992256
 O    5.76520500  11.64763388   6.76393987  -0.03955186   1.68406522  -0.21870569
 O    5.93546877   0.02384512  10.58150432   0.06074651   0.47335564   1.13717939
 O    9.59455366   3.89697422   2.50838705   0.99297166   0.07806502  -0.11748008
 O    9.64246632   3.73506854   6.43414880   0.47390793   5.06634737   0.49789948
 O    9.87343741   3.91707343  10.91466175  -0.78149637  -0.57583783   0.27490723
 O    9.66795028   7.77394289   2.48888710  -0.28628739   2.04819975  -0.06981618
 O    9.58458015   7.85723108   6.60397543   1.65763651  -1.68006747  -0.38273495
 O    9.70564360   7.81718486  10.76581877   0.62325852  -0.42971483   0.01868656
 O    9.57684248   0.03274168   2.36263613   2.02669095  -1.41023216  -0.02630204
 O    9.68692571   0.03635884   6.69828338  -0.43512116  -0.47250441  -0.21238732
 O    9.76168022   0.11221372  10.85910434   0.69664683  -0.09647290  -1.29825468
