# total energy = -399028.08628439
CRSYTAL
PRIMVEC
 11.70600000   0.00000000   0.00000000
  0.00000000  11.70600000   0.00000000
  0.00000000   0.00000000  12.46800000
PRIMCOORD
135 1
Pb    4.01521653   3.87882992   4.18399897   0.97537826   0.00792279   0.18787395
Pb    3.78893955   3.88359427   8.30335136  -0.47912483  -0.00926673  -0.26900541
Pb    3.84668525   3.82356590   0.08116668   0.52079465   0.60866485  -1.18535302
Pb    3.95604270   7.88046749   4.32795450  -0.45876011  -0.19959632  -1.05218474
Pb    3.93716092   7.89159990   8.39763438  -1.28813222  -0.65962043  -0.49602881
Pb    3.96404960   7.60127939  12.41252987  -0.77575529   0.82430091   0.55777780
Pb    3.86337800  11.68764499   4.11376673   0.77942543  -0.39640578  -0.10226523
Pb    3.66587437   0.00043312   8.53935814   0.20419161   0.19196289  -0.38643472
Pb    4.09478221   0.02555420  12.44254034  -0.63306139  -0.32707664  -0.23129508
Pb    7.99995064   3.89675181   4.29421609  -1.56362509   0.81900509  -0.81359125
Pb    7.76387573   3.82497062   8.28737986   0.54554907   0.66358372   0.20478173
Pb    7.78774427   3.95192219   0.02153224  -0.08648057  -0.39602886   0.70781198
Pb    7.73806400   8.03971592   4.09132433   0.45734384  -2.50350501   0.89727734
Pb    7.68996405   7.82276862   8.24718302   1.47887299  -0.21842674   1.32347827
Pb    7.70878730   7.69667159   0.02745454   0.30508244  -0.02807430  -0.70454921
Pb    7.76410985   0.09125998   4.05520453   0.07417570  -0.08744379  -0.27470859
Pb    7.69589899   0.01409402   8.43727015  -0.32473902  -0.52961974  -0.59114792
Pb    8.01883241   0.02522643  12.39568560  -1.02287690   0.13890954   0.17980268
Pb    0.28844755   3.89470326   4.33191932  -1.69460423  -0.15502923  -0.26494312
Pb   11.62924376   3.85133253   8.21171156   0.57121341   0.08024057   0.62252306
Pb    0.08024463   3.92813560   0.18026234  -0.50753797   0.25514719  -1.53858894
Pb    0.05374225   7.78238292   4.15645716  -0.37614004  -0.11889508  -1.02204313
Pb   11.46071248   7.73382643   8.24256986   1.08877194   0.17391294   0.68845236
Pb   11.64429767   7.69441233   0.03422466   0.06932913   0.37187217  -0.57617420
Pb    0.10589248  11.50561669   3.91906644  -1.17688961   1.11493503   0.81816370
Pb   11.44681745  11.63823397   8.25904009   1.29287980   0.22337610   1.26579156
Pb    0.16315823   0.12346318   0.18443912  -1.20922417  -0.55117992  -2.18935382
Ti    2.02229344   1.96672506   2.22152330  -0.36766141  -0.27625051   1.81964033
Ti    1.88136491   1.81625614   6.30190073   0.78777843   2.02521396   0.78990666
Ti    1.90450767   1.92787285  10.54612014  -0.33080389  -0.24161640  -2.56503319
Ti    1.98902499   5.84508674   2.20235999  -0.62832143   0.69677110   1.61481672
Ti    1.87770093   5.82583037   6.28077994   1.33168660   0.91434883   1.44377060
Ti    1.99327427   5.81456920  10.55068343  -3.49265012  -0.46227797  -0.72996228
Ti    1.97462661   9.63389753   2.08117103   1.14968716  -0.14722447  -0.54740318
Ti    1.83969155   9.74318474   6.43788920   0.69250322  -1.52084358  -0.17570614
Ti    1.87327606   9.65590481  10.58861108  -1.21546036   0.85037262  -0.49438409
Ti    5.90422546   1.96193731   2.11234103  -0.29819522   0.85508594   2.58910993
Ti    5.78962372   1.94791352   6.43620602  -0.82688219  -0.68033541  -1.64093031
Ti    5.81145541   1.99148325  10.44492985   1.50319339  -0.45095916   0.17698536
Ti    5.81573980   5.88713470   2.25397751   2.22382041  -1.45663513  -0.72221843
Ti    5.77224031   5.85762387   6.39981193   0.18360989  -0.50590849  -1.45246244
Ti    5.83374363   5.76730037  10.46257207  -0.73572638   0.04582347   1.26256686
Ti    5.85806870   9.74250580   2.12181671  -1.35004111   1.29816038  -1.07288830
Ti    5.76936063   9.76913695   6.41605774   0.16067531   1.17251514  -0.14613941
Ti    5.76003095   9.72570769  10.51010009   2.08500986   1.00383709   1.40689024
Ti    9.82685923   2.06946862   2.22188488  -0.60684881  -1.80683671  -1.40805144
Ti    9.66998713   1.91235069   6.28455774   0.85316330   0.57683284  -0.65305301
Ti    9.76965201   2.00615087  10.52799167   0.09590339  -0.60371168   0.44407193
Ti    9.68617652   5.88972172   2.17887028   0.40030435   0.75815079   1.51092201
Ti    9.69552962   5.89014314   6.28528088  -0.69430784  -1.20285091  -0.71248342
Ti    9.71547664   5.73249844  10.56099446   2.12283059   2.05298368  -1.21143996
Ti    9.69322354   9.76108322   2.07182003   1.74715122   0.32243186   0.46813344
Ti    9.62310460   9.80742727   6.25312591   0.32240521   0.40004546   2.22658063
Ti    9.70008325   9.65704029  10.46667404   2.14825889   0.63823157   1.96840290
 O    1.95673984   2.01881676   0.42413642   0.69541193  -0.62693180  -0.56418913
 O    1.84644591   1.87793505   4.48035086   0.45574862  -0.30704696   0.33368214
 O    1.89961456   1.87300682   8.68075772   0.45615599   0.91009238   1.05339162
 O    2.02143890   5.85171234   0.43136786   0.53759202  -0.32163615  -0.53293581
 O    1.76146035   5.91583781   4.46878056  -0.10047204  -0.80813173  -0.13278375
 O    1.97425202   5.77596281   8.77007848  -0.35721825  -0.07036469  -1.39819459
 O    1.99602518   9.60150703   0.29107793   0.00038453   0.87995838   1.72211507
 O    1.92756849   9.81213308   4.62527890  -0.35130186  -0.42487222  -0.64550333
 O    1.98623896   9.78076100   8.76405643   0.06112842  -0.53646128  -1.52082454
 O    5.66241461   1.99144813   0.36498823  -0.04326884   0.02142693  -2.07318089
 O    5.88239377   1.92312021   4.60019328   0.41582250  -0.56703311   0.48281401
 O    5.77412497   2.00399696   8.64835339   0.72374131   0.64551475  -1.48758767
 O    5.90785432   5.92021585   0.39994850  -0.92647477  -0.04853801  -0.12371500
 O    5.79936311   5.99314423   4.59707628   0.27939145   0.38060589  -0.27875565
 O    5.69399740   5.73677113   8.70888553   0.13131036   0.45749993  -2.10570961
 O    6.02109816   9.80769651   0.30236147  -0.88821240  -0.36913479   0.73174024
 O    5.85282441   9.67802915   4.58000759  -0.45708495  -0.06568945   0.05405464
 O    5.83109807   9.63764345   8.74323487   0.14290710   0.49923828  -1.85965782
 O    9.88136237   2.01745886   0.39314098  -0.57405739  -0.25710029   0.71787822
 O    9.55160435   1.76518286   4.43948076  -0.00138582   1.35170105   1.38118402
 O    9.75040735   2.18030103   8.70076886   0.38989546  -1.00333073   0.83362475
 O    9.54410080   5.90646130   0.39827779   0.26579594   0.06513360  -2.31462977
 O    9.74469482   5.78586609   4.47727127  -0.12280127   0.96794280   1.11460380
 O    9.83479590   5.73155025   8.73288643  -0.37912108   0.03865071  -0.01038604
 O    9.80516801   9.80047391   0.28712557  -1.18700915  -0.10410411   0.29415197
 O    9.67324139   9.89181583   4.49126036   0.33781676  -0.43051449  -0.81586035
 O    9.77907534   9.83794481   8.68668002   0.14913568  -0.22186845  -1.58479313
 O    3.86690151   1.95841380   2.63771761   0.14739960   0.65138545  -0.72346338
 O    3.89223329   1.99467899   6.61272797  -1.28528443  -0.74517966  -0.02312113
 O    3.99240154   1.80048815  10.69601044  -3.80682035   0.72557257   1.24607407
 O    3.94804750   5.80362409   2.60619851  -2.17142571   0.13786637  -0.35919800
 O    3.78463174   5.91785124   6.52663643   1.26090692   0.05819688   0.64875848
 O    3.81430645   5.71915360  10.88948886   3.31405812   1.46042329   0.45363562
 O    3.89445743   9.75420009   2.44365319   0.26442534  -0.62349770   0.23712390
 O    3.85871902   9.65020399   6.68110248  -0.56167637  -0.36748247  -0.08230027
 O    3.93175275   9.83694980  10.79713838  -0.35050235  -0.06559427   0.33035084
 O    7.72983469   1.88694867   2.21546386   1.57987423  -0.34682079   1.30677989
 O    7.78144644   1.96035700   6.83518202  -0.51821337  -0.41382753  -1.42372188
 O    7.77822729   2.20976503  10.83186176   1.51835747  -1.36152744  -0.34478013
 O    7.76178036   5.86376952   2.40515201  -0.52077942   1.28689868   1.70746496
 O    7.77018527   5.81050722   6.69229874   0.56415105   0.04977154   0.02919362
 O    7.75583371   5.74480144  10.77460871   0.13772169   0.67490634  -0.28864676
 O    7.80118276   9.71373245   2.53434542  -1.19655380   1.00087509  -1.34220209
 O    7.75651266   9.84805880   6.67542954   0.03154647  -0.84466563   0.15002657
 O    7.90041452   9.78393333  10.71314147  -3.37891379  -0.32486085   0.64307433
 O    0.01429303   1.93346831   2.51065622   0.12888137  -0.10189212  -0.15527289
 O   11.68364154   1.98330076   6.57253114  -1.64844573  -0.49653136  -0.16059536
 O    0.04308979   2.01611267  10.94871186  -0.86024470  -0.57217283  -0.66357230
 O   11.62149439   5.86948205   2.23179694   1.58488831  -0.08770649   1.40115279
 O   11.63904168   5.72814380   6.63500828  -1.51083064   1.17505835  -0.07613641
 O    0.01704394   5.81648899  11.00888243  -0.70220778  -0.29813430  -0.38875711
 O   11.65541837   9.49972336   2.34489416   2.41919074   2.86952552   1.05671911
 O   11.63479240   9.75485563   6.69863249  -0.47361581   0.27510073  -0.57496731
 O    0.04122853   9.69144422  10.83851968  -1.01056061   0.91725753  -0.09955450
 O    1.86556181   3.93327453   2.59652334   1.20570251  -1.03461831  -0.90941089
 O    1.90067981   3.88207249   6.54784450   0.01895986  -0.25333116  -0.07986366
 O    2.03373020   3.84210820  10.87395373  -0.13554778  -0.31215622   0.38573419
 O    2.02104090   7.74898570   2.58624971  -0.31232755   0.97294927  -0.26103693
 O    1.78474358   7.72014212   6.58664491  -0.17790289   2.07981684   0.68381138
 O    1.88116591   7.74573143  10.85671049   1.74343920   0.17321242  -0.30276005
 O    2.08714468  11.64311537   2.40695987  -2.27273914   0.20082605  -0.26271591
 O    1.88921963  11.70337786   6.66041807   0.37248894  -1.34127694   0.28665178
 O    1.92000641   0.01138994  10.72637002   0.35864215  -0.24261008   1.98499849
 O    5.90739778   3.94656084   2.50882343  -1.01906209  -1.41013017   0.34838555
 O    5.73522593   3.94680667   6.47819825   0.70093998  -0.99005122   1.39644328
 O    5.70736565   3.91308168  10.73065901   0.06563615  -0.06086572   1.39050405
 O    5.78796146   7.84344142   2.44345370   0.44611259   0.39725097   0.40485776
 O    5.90419034   7.78100161   6.88779698  -1.53950648   0.36586060  -1.87098044
 O    5.68442189   7.76580722  10.73772836   1.21974727  -0.30387556   0.45427523
 O    5.73891332   0.00180272   2.38208621   0.28946150  -0.48293965   0.84101833
 O    5.77371526  11.61120481   6.77061025   0.26507637   1.82974845  -0.16731126
 O    5.94534863   0.06210033  10.59039401   0.49395769  -1.81054873   1.54711707
 O    9.53393999   3.91771726   2.48448589   1.46725341  -0.72336440   0.01301682
 O    9.66543349   3.85689288   6.43190456  -0.08318734   0.33915689   0.63959836
 O    9.89313860   3.92812389  10.93158083  -0.93454603  -0.61425763   0.19643254
 O    9.77153668   7.84856864   2.47378835  -1.70949039  -0.75001100   0.35055946
 O    9.57676054   7.88436559   6.60299046   1.38721082  -2.07321134  -0.12192561
 O    9.78848696   7.79801043  10.69830455  -0.24691222  -1.70840914   0.58774809
 O    9.72940678   0.02172634   2.39462902   0.27637995  -1.31362904  -0.24794397
 O    9.64993475   0.03590230   6.68896979   0.54570517  -0.10271828  -0.03166449
 O    9.71708036   0.08304236  10.82209932   0.93820856   0.93219318  -0.97583894
