# total energy = -399027.54749894
CRSYTAL
PRIMVEC
 11.70600000   0.00000000   0.00000000
  0.00000000  11.70600000   0.00000000
  0.00000000   0.00000000  12.46800000
PRIMCOORD
135 1
Pb    4.00993712   3.89062957   4.18570709   0.19125778  -0.32796455  -0.34070894
Pb    3.77908310   3.90080209   8.30513429  -0.98817891  -0.45200926  -0.16244249
Pb    3.84655648   3.83833887   0.06359927  -0.12403986  -0.23528692  -0.37377074
Pb    3.94524977   7.89826061   4.33322846  -0.22664379  -0.66606361  -1.46819483
Pb    3.90956988   7.88305452   8.37776039  -1.02691565  -0.60993408   0.04196157
Pb    3.96021004   7.59909037  12.40157050  -0.73972150   0.71722999   1.27561516
Pb    3.86964071  11.67008599   4.11180925   0.69867025   0.15200778  -0.63101655
Pb    3.64131518  11.70004165   8.54341024   0.69995341   0.52557516  -0.48298412
Pb    4.10617215   0.02638532  12.42191827  -0.79195315   0.29456865   0.55784770
Pb    8.01472361   3.90498113   4.29452779  -0.81441077   1.08351486  -0.29182802
Pb    7.75957963   3.83722680   8.27276736   0.75662040   0.44067876   0.35210238
Pb    7.80722305   3.97378900   0.01185707  -0.00047937  -0.93648474   1.04202781
Pb    7.74104903   8.03599341   4.09925398   0.34867418  -2.79231322   1.43410650
Pb    7.67811758   7.83248460   8.26269322   1.27515032  -0.22458105   0.41058516
Pb    7.71790627   7.70860000   0.01710610   0.20697037  -0.11615694   0.10069614
Pb    7.77031403   0.08802912   4.05458113  -0.06033246  -0.42815711   0.52234064
Pb    7.71439447  11.69842622   8.43563684  -0.55717465  -0.29847622  -0.65464595
Pb    8.02364358   0.01455056  12.39674538  -0.91868037   0.53439745  -0.57807796
Pb    0.27464617   3.91185255   4.34133266  -1.56465898  -0.87255945   0.04185504
Pb   11.62099103   3.85157836   8.19963007   0.96122783   0.43132384   0.54297279
Pb    0.08849736   3.92551345   0.16854242  -0.32590182  -0.33222559  -1.44865699
Pb    0.06339970   7.79171260   4.15132034  -0.06830255  -0.07961367  -0.60036611
Pb   11.45927264   7.73149694   8.24480164   0.99015933  -0.45724840   0.00152526
Pb   11.64132435   7.70470190   0.02161951   0.10799801   0.00286168  -0.15063747
Pb    0.10737914  11.48190034   3.92637269  -1.10236512   1.64069919   1.68013318
Pb   11.44015674  11.64029422   8.25726964   1.21522459   0.56707188   1.05377957
Pb    0.17371704   0.12439966   0.17961401  -1.01059780  -0.30790861  -2.04724121
Ti    1.97313995   1.93994173   2.23846732   1.05738693   0.76840606   0.75508546
Ti    1.91245604   1.78838415   6.32795885   0.12370576   3.25993823  -1.55680511
Ti    1.88036990   1.89837373  10.55684262  -1.08314201   0.82312169  -1.94892253
Ti    2.01017773   5.84695970   2.23740754  -0.00514230   0.29324676   1.22522835
Ti    1.93515398   5.84891461   6.30102797  -1.00180456  -0.53383092   1.31229400
Ti    1.97754140   5.83905815  10.58897266  -2.80967212  -2.86568544  -4.35931093
Ti    1.93453356   9.66975301   2.08600861   2.70430336  -0.94550072  -0.66062594
Ti    1.86992815   9.71862556   6.44328785  -0.16784627  -0.99367469  -0.05986762
Ti    1.86048140   9.60823798  10.57985855  -0.09323448   3.37112718  -1.22709256
Ti    5.98727953   2.00411402   2.14890967  -3.92295131  -0.60411873  -0.13236342
Ti    5.80895032   1.95712614   6.43662994  -1.25906489  -1.61558326  -0.68817260
Ti    5.78100810   2.02772503  10.46335756   0.61949237  -1.68601632  -1.59229280
Ti    5.82977530   5.88608116   2.25499988   0.64383356  -0.71743336   1.22562056
Ti    5.79036119   5.84522722   6.42772778   0.99068712  -0.31534122  -3.63632854
Ti    5.86490500   5.79703361  10.44591482  -1.88151093  -0.68227493   0.15574104
Ti    5.85061198   9.72834154   2.11558271  -1.99970639   1.57299706   1.88231472
Ti    5.74704899   9.75245590   6.41745415   0.82376085   2.36484853   1.51930311
Ti    5.78477743   9.72456050  10.54153192   2.09510528   1.10325606  -1.72635095
Ti    9.78963415   2.03310979   2.21475318   1.66793111  -0.63305991  -0.19000852
Ti    9.67768967   1.93823266   6.33374400   1.38042223   1.37221489  -0.79893060
Ti    9.75043076   2.01625315  10.54650665   1.11226720  -0.84021428   1.20606335
Ti    9.74233021   5.91178753   2.17847130   0.06604129  -0.38792902   1.04481202
Ti    9.69907654   5.91302837   6.28963222  -0.35828089  -1.24419483   1.02368113
Ti    9.70168697   5.74412249  10.53180688   2.79175638   0.13454236  -1.99797776
Ti    9.69191246   9.75281878   2.08700605   1.86210867   0.75896882   1.14913972
Ti    9.63963347   9.82918873   6.25409842   0.83688776  -0.73924698  -1.18166890
Ti    9.71969080   9.63776051  10.49182200   0.28039585   1.29190880   0.60252568
 O    1.93769418   2.00921784   0.37548629   0.48193823  -0.92766245   1.93682215
 O    1.78635901   1.91667020   4.42953130   1.34466823  -0.90278863   3.15019222
 O    1.88879822   1.92695978   8.69716561   0.22890504   0.08616502   0.25435992
 O    2.06568758   5.85696833   0.44440939   0.21509055   0.02099531  -1.48711288
 O    1.74255516   5.84701823   4.47218432   0.29812274   0.00077958   1.10123691
 O    1.97709658   5.76473676   8.68099462  -0.44106129   0.47473804   2.59997081
 O    1.91045432   9.65139800   0.28981866   0.90847808   0.25436960   0.92571593
 O    1.92431422   9.86029157   4.64925486   0.05690910  -0.88489226  -1.07925382
 O    2.11508690   9.67863786   8.70510773  -1.29705594   0.07344485   1.13158230
 O    5.63422657   1.96031017   0.36227021   0.80053818  -0.14325812  -0.57757438
 O    5.94318302   1.87447007   4.61018015   0.08626186   0.08760796  -0.18538916
 O    5.72637620   2.02622666   8.60101240   1.08438159  -0.04263462   2.46093015
 O    5.93057566   5.92962748   0.45726390  -1.36665132  -0.01478775  -2.75553269
 O    5.75049056   6.05303213   4.55513393   0.90988229  -1.05231726   2.28707485
 O    5.70147754   5.75655427   8.67786515   0.41771272   0.15122337  -0.51219162
 O    6.04239137   9.78489322   0.36488849  -0.67415474  -0.51561013  -2.41338081
 O    5.79161374   9.72049852   4.62884474   0.32104520  -0.38913470  -1.53758200
 O    5.81710940   9.61475822   8.71570553   0.48903673   0.42721775   0.32777571
 O    9.88095266   2.01169951   0.43229050  -0.71605820  -0.65547879  -0.28734909
 O    9.52239788   1.77687715   4.53442458  -0.06012909   1.30160751  -0.26754978
 O    9.74175661   2.15046244   8.76583936   0.37912125  -0.69539215  -1.98696685
 O    9.55461279   5.88555439   0.38225641   0.32589214   0.65300933  -0.68552881
 O    9.66583150   5.77557652   4.52558477  -0.12894974   1.36126208  -3.10884560
 O    9.81630042   5.74285825   8.69934751  -0.54649784   0.17125994   1.51551659
 O    9.76599974   9.75397768   0.29222498  -1.01205042  -0.24640436  -0.75823282
 O    9.68871673   9.81065813   4.41309847   0.49392240  -0.03913863   2.70692293
 O    9.71494987   9.86049057   8.69113110   0.58681309  -0.79041820   0.00579114
 O    3.85587446   1.95678667   2.59420429  -0.32781929   0.33578453  -0.14159729
 O    3.84264668   1.95814456   6.65247595  -0.27141377  -0.57962743  -0.69087448
 O    3.87426458   1.77054421  10.69049958   0.86107885   0.66695455   0.81558740
 O    3.90725209   5.80279297   2.63890207  -0.65842763  -0.14516107  -0.52386590
 O    3.79254500   5.96149121   6.50682478   1.25158386  -0.58496341   0.57652849
 O    3.83447589   5.69134014  10.83324571   2.13396307   1.31614831   0.64946007
 O    3.87187656   9.74638048   2.46305340   0.90279347  -0.28992024   0.03794747
 O    3.87870116   9.59743334   6.67020545  -0.51338761   0.11168284  -0.30745345
 O    3.97206821   9.76505155  10.76878615  -2.01699266   0.47537235   1.11421372
 O    7.80520962   1.90064469   2.27922521   0.69829741  -1.01508642   0.97035517
 O    7.81431689   1.95439864   6.80712902  -1.68537233   0.15569746  -0.51887370
 O    7.84060856   2.18765240  10.87823026  -1.48884151  -1.50009453  -0.37042970
 O    7.69621505   5.92281458   2.39901775   2.27111047   0.69821994   1.78193816
 O    7.77362683   5.70435721   6.76175797  -1.72371201   1.40782363  -0.48513401
 O    7.74830675   5.67623940  10.78985707   0.14455096   1.48976635  -0.65792889
 O    7.82822362   9.68061617   2.56647546  -1.91620936   1.62687017  -2.23916235
 O    7.80765617   9.81916839   6.64339925  -1.39084242  -1.05564862   0.36476445
 O    7.82287397   9.72969943  10.71186973   0.31872584  -0.88351710   0.78666558
 O   11.68360642   1.91555813   2.59219694   0.23980943   0.19599335  -1.10540111
 O   11.65793516   1.99925603   6.57758068  -1.00026477  -1.03022764   0.30633009
 O    0.00917750   1.96544911  10.96428439  -0.99629910  -0.08212672  -0.48851379
 O   11.67740224   5.87881173   2.22577489  -1.42203517   0.24395426   1.29171996
 O   11.57090105   5.67970438   6.59529770   1.92591776   2.36754073   0.32517067
 O    0.02941718   5.77164330  10.92714222  -0.25323171   0.75466904   0.27859943
 O    0.06020396   9.53927793   2.34247537  -0.70114940   1.73707134   1.01894072
 O   11.63588106   9.72965261   6.67107821  -0.57596681   0.63493380   0.18448369
 O    0.04207136   9.72941849  10.87690865  -1.97586393  -0.28359163  -1.14393448
 O    1.85865527   3.93160057   2.60818092   1.07091089  -1.12784905  -1.25367080
 O    1.88998052   3.85774742   6.56187100   0.35976257   0.80937984  -0.26518199
 O    1.93872431   3.82031163  10.93907410   0.68503492   1.54544072  -0.18548601
 O    2.01834852   7.72276426   2.65875113  -0.37070570   2.02685116  -0.70473739
 O    1.79723389   7.76471857   6.60573342  -0.38572102   0.24501952   0.13852256
 O    1.91530060   7.77105151  10.88803010   1.05180400  -1.27699516  -0.41416831
 O    2.05866398  11.64289295   2.41270762  -1.96528880   0.13459078  -0.36438677
 O    1.93367902  11.68210805   6.67586592  -0.18256622  -1.07355467   0.66070341
 O    1.80684451   0.00254020  10.75463497   1.41003647  -1.75123930   0.87999206
 O    5.81201729   3.87708573   2.43428972   0.17227678   0.17387467   0.90211558
 O    5.70522346   3.89774682   6.58482458   0.59262360   0.32744161   0.10482644
 O    5.72224398   3.86822429  10.75714104  -0.03063107   1.14815678   0.97905641
 O    5.73730960   7.84359359   2.44992460   0.57666407   0.68935407   0.24931446
 O    5.88537880   7.72080936   6.83964557  -0.30015642   1.60548266  -1.16972830
 O    5.66060018   7.70989937  10.74816408   2.02215917   0.13008764   0.40326876
 O    5.74824301  11.70506352   2.39906762   0.80216996  -0.45920945   0.79737629
 O    5.79243316  11.64869913   6.76940086   0.24289869   0.07110612  -0.19919881
 O    5.97242461   0.03405275  10.66300764  -0.04663418  -0.78815211   1.04356760
 O    9.53614072   3.91528241   2.46210583   1.21130250   0.52062654   0.23132125
 O    9.68299249   3.98919409   6.45871076  -0.82633684  -4.84160747   0.94389798
 O    9.87301599   3.91837279  10.95690334  -0.67877894   0.79232599   0.15310694
 O    9.80619814   7.89019518   2.47181840  -1.11589392  -2.88364475   0.11139716
 O    9.62726023   7.83240266   6.59804066   0.46581406   0.58473099   0.48407359
 O    9.85882832   7.72187461  10.65659909  -0.93029655   1.02201545   0.77588709
 O    9.89042281  11.66285168   2.41482718  -1.43549134  -0.32733508  -0.50415374
 O    9.63527884   0.02866799   6.67905773   0.88354131  -0.22231496   0.24746962
 O    9.71025577   0.08225806  10.74666792   0.10010540  -1.17029482   0.19182915
