# total energy = -399027.66178676
CRSYTAL
PRIMVEC
 11.70600000   0.00000000   0.00000000
  0.00000000  11.70600000   0.00000000
  0.00000000   0.00000000  12.46800000
PRIMCOORD
135 1
Pb    4.00505572   3.90197269   4.18648010  -0.47233153  -0.70065053  -0.43082417
Pb    3.76565632   3.91775237   8.30655564  -0.14891051  -0.19085499   0.18409864
Pb    3.84615848   3.85345132   0.04356319  -0.26533163  -0.06185243  -0.08860225
Pb    3.93307553   7.91514067   4.33392667   0.36459104  -0.22229435  -1.29541833
Pb    3.87720279   7.87176994   8.35692636   0.53347127  -1.12191509   0.79010801
Pb    3.95373662   7.59928937  12.39407723  -0.20564104   0.72767593   0.89457961
Pb    3.87872457  11.65182463   4.10768234   0.65969907   0.14903879  -0.77344995
Pb    3.61776271  11.69482077   8.54591630   0.98709693   0.05502006  -0.72664014
Pb    4.11554866   0.02795393  12.40174505  -0.80580156  -0.07575949   0.82108649
Pb    8.02762362   3.91716707   4.29370490  -0.04489504   0.59463001  -0.34852215
Pb    7.75743743   3.85151983   8.25872839   0.36780767  -0.37344272   0.99482255
Pb    7.82786073   3.99406379   0.00497473   0.13106938  -0.53109087   0.41618066
Pb    7.74539196   8.02267198   4.11228304   0.08284843  -1.85126822   0.81947105
Pb    7.66974779   7.84206011   8.28077182   0.14819306   0.04044782  -0.11440656
Pb    7.72816073   7.72079765   0.00629634  -0.03477002  -0.18166597   0.30793654
Pb    7.77661186   0.08314772   4.05565338  -0.48193391  -0.64667575   1.14583788
Pb    7.73226953  11.67441721   8.43157228  -0.04816868  -0.05467321  -0.81912896
Pb    8.02535266   0.00488140  12.39610951  -1.40479326   0.30768947  -0.59254419
Pb    0.25442991   3.92704694   4.35119485  -1.55048239  -1.34368204  -0.51063177
Pb   11.61540727   3.85317037   8.18877044   0.77890445   0.19917927   0.61310782
Pb    0.09601261   3.92183777   0.15124931  -0.47705908  -0.17180703  -0.77879042
Pb    0.07311568   7.80133493   4.14377720  -0.25677453   0.11739038  -0.19008053
Pb   11.46123925   7.72784467   8.24740745   0.79127683   0.13683270  -0.10314123
Pb   11.63850320   7.71563531   0.00766782   0.03113052  -0.25768678   0.01936630
Pb    0.10520182  11.46255032   3.94002515  -0.66415579   2.03686827   2.68061723
Pb   11.43723024  11.64427426   8.25908996   0.63273544   0.39475705   0.78205931
Pb    0.18133765   0.12413042   0.16753252  -0.82011248  -0.68606879  -1.20416485
Ti    1.93587975   1.92189108   2.26769231   1.65111969   0.87633937  -0.57977744
Ti    1.94660245   1.80381266   6.33542718  -1.10589370   1.20275371  -0.77293681
Ti    1.83944572   1.87814576  10.54062175  -0.83771605   0.90833462   0.20229137
Ti    2.03010134   5.85411207   2.28900012  -0.83276994   0.28792406  -2.15691938
Ti    1.98428406   5.86693014   6.34208509  -0.99873287  -0.74879546   0.82829422
Ti    1.92058001   5.82540896  10.56988415   0.23731321  -2.38168915  -2.52702669
Ti    1.93460380   9.69444096   2.08281680   4.23144646  -0.81784136   0.53713452
Ti    1.89959115   9.68048741   6.44601834  -0.92265504   1.54914728  -1.33018834
Ti    1.84557967   9.60448035  10.55399992   1.23646419   2.75906595  -0.52692398
Ti    6.02094598   2.03676206   2.18658797  -3.95474497  -3.71297030  -2.83831289
Ti    5.81318789   1.94378130   6.42593239   0.35753536  -1.49202239  -0.22419011
Ti    5.76065137   2.04341107  10.46344483   1.03709487  -1.16155994   0.39722773
Ti    5.85796334   5.87600229   2.26789180   0.90821584   1.36429318  -1.00037682
Ti    5.82318482   5.82856958   6.40822783   0.69470190   0.73082129  -1.04992813
Ti    5.87066435   5.81895895  10.43101556  -1.98371072  -0.63487828  -1.13991301
Ti    5.81456920   9.73685180   2.12983363  -0.87809260   1.28831038  -0.09581473
Ti    5.73609218   9.76772052   6.43751516   1.60374447   1.42033952   0.19084549
Ti    5.83856650   9.73870135  10.55387524  -0.62717167   0.06562021  -1.38231486
Ti    9.77523577   1.98612190   2.20512788   3.45822457   1.31181031   1.39587507
Ti    9.70378235   1.98390947   6.37548686  -0.21568529  -0.16259901   0.08778028
Ti    9.74450752   2.01457919  10.57990842   0.29924166  -0.81075242  -0.97340369
Ti    9.80176157   5.92919435   2.19261001  -0.94118037  -1.65494448  -0.92300664
Ti    9.69660657   5.91727765   6.30318493  -0.46855900  -1.31042768  -1.11462659
Ti    9.72563745   5.76061625  10.47676066   0.68203018  -0.27875405   1.63298872
Ti    9.71605024   9.75278366   2.11717861  -0.00448998  -0.72931037  -0.38290256
Ti    9.66840682   9.84294328   6.24379985   0.35547330  -0.72223094   0.17108008
Ti    9.74716478   9.63676550  10.52766750  -0.49509977   1.69184783  -1.11105361
 O    1.93666405   1.95961952   0.39930017  -0.40139462  -0.58204381   1.44701332
 O    1.78021336   1.92046295   4.50281820   1.36988546  -0.61826773   1.61428285
 O    1.88656237   1.98949323   8.72721349  -0.32841464  -0.45325506  -0.35848087
 O    2.11978101   5.86189656   0.40746671  -0.72244474   0.02330988   1.52433598
 O    1.73664363   5.77417180   4.51802916   0.85644567   0.84630165   0.60990069
 O    1.96070818   5.77157306   8.68534595  -0.38860412   0.34609423   1.48426352
 O    1.85687596   9.71505523   0.32335758   0.82740097  -0.58327440  -1.47189113
 O    1.92257003   9.87193904   4.63184953   0.30954248  -1.10820283  -0.03573453
 O    2.19315422   9.57604648   8.68648054  -2.55378126   1.18917925   2.09794624
 O    5.63959962   1.92260515   0.33547648   1.48452959   0.03007098   2.18299452
 O    6.00926339   1.82701395   4.61221243  -0.80892316   0.78878715  -0.93501318
 O    5.72122556   2.04782423   8.64415168   0.51449457  -0.74581639   1.99164539
 O    5.89621855   5.93604236   0.42282728  -0.83046081  -0.61044709   1.10182184
 O    5.73769590   6.07100084   4.59314886   0.99095974  -1.93016832  -0.49793629
 O    5.72659861   5.78462525   8.61968946   0.34238347  -0.10991659   1.12741709
 O    6.03138773   9.73879499   0.34437863  -1.09419125  -0.24856429  -0.60214657
 O    5.73870262   9.74979863   4.62248606   0.50406072  -0.18253546  -0.49563191
 O    5.82266975   9.61066112   8.69237790   0.34938688   0.52826860   0.67488898
 O    9.84977958   1.97728387   0.45692726  -0.46050555  -0.74711350  -1.88827135
 O    9.48987861   1.84641079   4.61949374   0.17415892   0.74558833  -2.50190181
 O    9.74974010   2.08762463   8.76299665   0.29985933  -0.24864981  -0.78499086
 O    9.58152488   5.89085720   0.33558869   0.62834999   0.70467013   1.80945202
 O    9.57899639   5.82223663   4.47238381   0.47603280   0.62996068   0.51708879
 O    9.77500165   5.76085037   8.71115471   0.01247692  -0.08882556  -1.84945797
 O    9.68142389   9.69426537   0.27577969  -0.08721962  -0.23212954   0.89007063
 O    9.72576622   9.72209053   4.43074069   0.23776933   0.23193949   0.85859801
 O    9.67235174   9.84941669   8.69212854   0.62218280  -1.17344294   1.08490721
 O    3.83396083   1.96880873   2.54324758   0.34691145  -0.43193598   0.87990759
 O    3.78011323   1.89523652   6.66695130   1.33462131   0.09764398  -0.44301126
 O    3.77355787   1.76854248  10.72122073   2.62738365   0.47274965   0.16303137
 O    3.83886564   5.79661220   2.65279142   2.12543726  -0.10246655  -0.01260995
 O    3.84516347   5.98134458   6.51201146  -1.56659405  -1.14895474   0.49208744
 O    3.94390358   5.71804153  10.80227520  -1.91967269   0.31855094   0.42427688
 O    3.88348891   9.72756894   2.48625635   0.07881457   0.72095284   0.02364247
 O    3.87713255   9.54734336   6.64579310  -0.31872674   0.80060839  -0.23169717
 O    3.93572108   9.70945976  10.78447090  -0.81573178   0.75221639   0.73653235
 O    7.90213530   1.87292488   2.38995352  -3.41436531  -0.69854095   0.31880751
 O    7.77662357   1.95271298   6.75448913  -1.73065646   0.19120183   0.62526164
 O    7.84906030   2.09943598  10.91093382  -2.17686534  -0.81087120  -0.36675289
 O    7.70698457   6.01432039   2.46855179  -0.06153409  -0.67538311   0.66049254
 O    7.71953341   5.65292105   6.80974730   0.71151675   2.01203322  -1.74297658
 O    7.75071819   5.66671072  10.77803741   0.92807628   1.22095594  -0.58944159
 O    7.78458365   9.71269061   2.50841198   0.83287922   0.67688927  -0.84964656
 O    7.80588857   9.74336033   6.62474712  -1.06931344  -0.53212190   0.27611233
 O    7.74662109   9.63558319  10.74363820   2.51979045  -0.61881888   0.22617616
 O   11.65701039   1.90563145   2.63325407   0.52842064   0.49938544  -0.89592423
 O   11.59307222   1.97333895   6.59660684   1.59382375  -0.63952030   0.68212521
 O   11.64317390   1.90863989  10.95832469   1.04335708   0.54943089  -0.36359327
 O   11.68893265   5.89742427   2.27756696  -0.55754136   0.04721367   1.03276643
 O   11.56838426   5.72703173   6.56720730   1.32860616   1.37168145   0.60131034
 O    0.03054095   5.75512613  10.85102508   0.08116172   1.06248582   0.37215036
 O    0.13827127   9.65509709   2.38694873  -4.75082537  -0.73429449   0.86017544
 O   11.61383866   9.72899707   6.64889764   0.08155132   0.30741389   0.65445363
 O   11.67062447   9.75688076  10.86991410  -0.13357331  -1.47416700  -1.14975771
 O    1.89614959   3.88538528   2.56924336  -0.04782184   0.48487022  -0.18819901
 O    1.89290702   3.86459543   6.56670858   0.17730428   0.86749720   0.05628866
 O    1.86755183   3.85293625  10.99772357   1.13289059   0.13219068  -1.22429136
 O    1.99916239   7.77379072   2.70400997  -0.29379192  -0.09419453  -1.02562998
 O    1.79401474   7.81652932   6.63347472  -0.29194366  -2.99254010  -0.15829433
 O    1.99518235   7.75123325  10.90171997  -0.70756842  -0.26255211  -0.65293797
 O    1.94476460  11.65085303   2.40498992  -0.20918551   0.40589410   0.21235938
 O    1.97263659  11.61915319   6.72126191  -0.73495492   1.16486684   0.77122635
 O    1.74870081  11.63369204  10.82160060   1.81237883   0.00400535  -0.96227139
 O    5.71765523   3.81763096   2.39598803   1.19034807   2.95974663   1.30168054
 O    5.69786038   3.85532428   6.70248510  -0.11414524   0.51183385  -1.22053783
 O    5.73759055   3.86091974  10.82793434   0.17351274  -0.42647198   0.06822868
 O    5.70899279   7.86385668   2.46972378   0.48398172  -1.51576464   0.39600189
 O    5.85069392   7.72469575   6.73652274   0.79761032   1.53315915  -0.06975859
 O    5.72245469   7.66274760  10.77621708   1.68464961   1.93465830  -0.01003475
 O    5.79105185  11.68599445   2.45209403   0.44120101   0.78420690   0.43466322
 O    5.82053926  11.69524219   6.76048624  -0.44287347  -0.98500636   0.12699276
 O    5.99882164  11.67537710  10.78378516  -0.72752864   0.68644889  -0.36296135
 O    9.59215393   3.92817071   2.44891469   0.54528775  -0.05420284   0.48201468
 O    9.66906235   3.94533171   6.52620005  -0.43635944  -1.71606046   0.44181393
 O    9.82250460   3.93170593  10.98944482  -0.00123059  -0.49426354  -0.24265842
 O    9.79311083   7.82532053   2.47539672  -0.12551035   0.19650429   0.04985540
 O    9.70200304   7.79094001   6.61194248  -0.53175130   0.41520190   0.41806218
 O    9.89381755   7.68100896  10.64697379  -0.99398157   2.29546255   0.72478238
 O    9.99824678  11.58005515   2.41416637  -2.57399804   1.07400297  -0.48306947
 O    9.65579945   0.01064075   6.67834705   0.17333694  -0.37472082   0.20536071
 O    9.70826575   0.03726020  10.67412910  -0.66454540  -1.29659190   1.12537878
