# total energy = -399027.53933552
CRSYTAL
PRIMVEC
 11.70600000   0.00000000   0.00000000
  0.00000000  11.70600000   0.00000000
  0.00000000   0.00000000  12.46800000
PRIMCOORD
135 1
Pb    3.99906225   3.91088095   4.18573202  -0.02280710  -0.47942322  -0.63137220
Pb    3.75204224   3.93352036   8.30835103   0.75246450  -0.37126388  -0.13654747
Pb    3.84516347   3.86806040   0.02365180   0.38934857   0.32534111   0.26007701
Pb    3.92239966   7.93068623   4.33027355   1.11403313  -0.58362485  -0.88874813
Pb    3.84684913   7.85713744   8.33887270   0.97420322  -1.02139157   0.83026356
Pb    3.94666619   7.60199346  12.38970096   0.12818487   0.93789968   0.26959786
Pb    3.89002086  11.63467534   4.10119898   1.11923852   0.82108258  -0.18359719
Pb    3.59787422  11.69002131   8.54600358   1.07290879  -0.07740105  -0.76148002
Pb    4.12192843   0.02925329  12.38473870  -0.99328516  -0.54690542   0.92460001
Pb    8.03978615   3.93102698   4.29152300  -0.50843296  -0.09182319  -1.15226857
Pb    7.75639560   3.86452519   8.24824280  -0.50337515  -0.37486830   1.38207474
Pb    7.84827599   4.01209103  12.46773817  -0.45091881  -0.25466144   0.06537142
Pb    7.74981683   8.00331026   4.12778076  -0.22240951  -0.93389278   0.07536630
Pb    7.66245495   7.85160050   8.29823948   0.22045526   0.28579538  -0.13306380
Pb    7.73813424   7.73228124  12.46472092  -0.00962370   0.12434344   0.42014711
Pb    7.78127085   0.07624118   4.06045356  -0.55951640  -0.79402710   1.29102073
Pb    7.74971147  11.65060721   8.42498917   0.50701981  -0.04298916  -0.64247613
Pb    8.02240274  11.70231261  12.39377800  -1.54237291  -0.27491057   0.30943427
Pb    0.22947272   3.93769940   4.35939880  -0.97287057  -0.73975961  -0.81503647
Pb   11.61269147   3.85553498   8.18015506   0.91735987   0.34322456   0.60017566
Pb    0.10164320   3.91775237   0.13179923  -0.75631935   0.27201720   0.12031865
Pb    0.08163764   7.81107433   4.13572288  -0.83673452   0.05615914   0.20640429
Pb   11.46593335   7.72464893   8.24980130   0.69537966   0.51506491   0.33157505
Pb   11.63584594   7.72563223  12.46190315   0.00243723   0.09655455  -0.24901333
Pb    0.10048430  11.45039949   3.96225559  -1.22494274   2.03866444   3.12477452
Pb   11.43666835  11.64938978   8.26359091   0.53388301  -0.15236934   0.69209723
Pb    0.18592640   0.12134440   0.15176050  -1.01818963  -1.63545272  -0.10875411
Ti    1.92385769   1.91711503   2.28982301   2.33862705   1.00260030  -0.36216340
Ti    1.96517987   1.83801759   6.33775870  -1.17423047   0.13469160   3.84975422
Ti    1.79018687   1.87126263  10.52559781   1.52780319   0.63930996   0.96614471
Ti    2.04002803   5.86467088   2.31189137  -0.06764319  -0.15106800  -2.55184664
Ti    2.01629997   5.87377815   6.39331610  -1.95574049  -0.84949755  -0.55107330
Ti    1.86718894   5.78130075  10.51688268   2.18707161   1.02123058   1.29801938
Ti    1.98684767   9.70698979   2.08467454  -0.24703224  -0.51707730  -0.10694296
Ti    1.91582737   9.66248358   6.43130610  -1.13846803   1.94286566  -1.14978215
Ti    1.84790916   9.63815851  10.52326630   1.55700076  -0.15023174   1.97831058
Ti    5.99665603   2.02164961   2.18744826  -3.08086861  -1.90952256  -0.87679900
Ti    5.82022320   1.91048944   6.40977386   0.19645861  -0.16706427  -1.41314159
Ti    5.75614456   2.04070698  10.47326962   1.65905137  -1.14265381   4.47153402
Ti    5.89730721   5.88280348   2.26881443   0.22253473   1.01854291  -1.23703497
Ti    5.86313740   5.82251758   6.37330496  -1.09398077   1.45584901   1.03432454
Ti    5.84940626   5.83188238  10.40371064  -0.55217788  -0.06804567   0.53400375
Ti    5.76985228   9.76198458   2.14283776   2.57550342  -0.29580367  -2.10534615
Ti    5.74850054   9.80242881   6.45910974   1.99002717  -0.33062252  -1.92599287
Ti    5.88548415   9.75314655  10.54761630  -1.24482069  -1.18096527   0.47815765
Ti    9.80506266   1.95711443   2.21223464   0.79956341   1.55689343   0.38826635
Ti    9.72677293   2.02245733   6.41310282  -1.36671796  -3.95451933  -1.90103474
Ti    9.74070307   2.00047346  10.60003177  -2.03898195  -1.09843486  -2.13279070
Ti    9.84492159   5.92378618   2.19562727  -2.54921712  -1.41536417  -0.57638919
Ti    9.68914985   5.90615695   6.30332208   0.60904807   0.88678493  -1.31986948
Ti    9.75986579   5.77576381  10.44170064  -1.06242199   1.42885614   1.62662950
Ti    9.74064454   9.74237703   2.14124185  -1.20312841  -1.87569203  -1.72055900
Ti    9.70065685   9.84487477   6.23772793  -0.90547781  -1.39804418   2.42904157
Ti    9.76548467   9.65922931  10.54896284  -1.71773271   1.12170705  -1.01247444
 O    1.91966694   1.88729985   0.47696334  -0.87861015   0.18807811  -1.30736135
 O    1.82941368   1.89840884   4.62438120   0.29714079  -0.06064007  -4.19212911
 O    1.87174258   2.03227866   8.74546664  -0.41845223  -0.63037047  -0.00780808
 O    2.14272477   5.86633313   0.42936052  -1.25896110  -0.30086148   2.26239766
 O    1.76577986   5.73671260   4.58402228   0.79676395   0.90798659  -1.13647353
 O    1.92919562   5.79122744   8.74345930  -0.00060372  -0.28444037  -2.35564294
 O    1.83965643   9.75366161   0.31376969   0.46115965  -0.91646994   0.83486523
 O    1.93281278   9.83734781   4.61135214   0.13450825  -0.70225757   0.55363575
 O    2.16475546   9.52464543   8.74352164  -2.05038997   1.51566176  -1.07251973
 O    5.70493081   1.88701891   0.39292902   0.84044179   0.21160968   1.32455612
 O    6.03838792   1.81288481   4.58166583  -1.68992593   0.90384107   0.34317089
 O    5.73941668   2.03879890   8.75266068   0.06561291  -0.82994605  -2.96408729
 O    5.82792575   5.91740641   0.42225376   0.11368671  -0.73368218   1.58665894
 O    5.76612977   6.00863127   4.61307272   0.49895236  -1.67571397  -2.01083530
 O    5.76474847   5.80841185   8.60425408  -0.07812551  -0.09049501   0.71494011
 O    5.97285773   9.68396409   0.30091518  -1.45425252   0.27921709   2.25909734
 O    5.70708471   9.77134938   4.59424604   0.21997676   0.22564723   0.64209601
 O    5.84179736   9.62998772   8.69548243  -0.14971746   0.67484880   0.04509099
 O    9.79925648   1.91306476   0.41447372  -0.11080228  -0.27245993  -0.02668431
 O    9.46818739   1.94714092   4.61176358   1.01109259   0.11285939  -0.46176784
 O    9.76921889   2.01488354   8.72823587  -0.13534451   0.07711932   1.26985037
 O    9.63478718   5.92341159   0.35520085   0.72572653  -0.10094156   0.78462699
 O    9.51642782   5.89319840   4.43818409   1.44904713  -0.62915409   3.40908967
 O    9.73442866   5.77406644   8.65942498   0.48210641  -0.47655668  -1.07079354
 O    9.59657880   9.62694416   0.29408272   1.23902500   0.10734544   1.41847219
 O    9.77212198   9.64556841   4.48289434  -0.16340172   0.55033542  -1.45359514
 O    9.65636134   9.79089840   8.72777455   0.27707054  -0.64298593  -0.93161654
 O    3.82518133   1.96248749   2.52913380   0.48530387  -0.95838135   1.16785790
 O    3.77471676   1.83691723   6.66374702   1.92351539   0.54716479   0.30547209
 O    3.77465823   1.78706137  10.76009596   0.59182199   0.24274808  -0.01016929
 O    3.84713008   5.78824241   2.66448641   0.73258208   0.48513841   0.20831383
 O    3.84587753   5.95370672   6.54025148  -0.23420213  -0.90066596   0.82290268
 O    3.98105842   5.75935200  10.78973239  -2.33086369  -0.41624754   0.04818560
 O    3.89321660   9.73823311   2.50818756  -1.63222843   1.11300010  -0.37536022
 O    3.85843807   9.53148173   6.61434881  -0.73357486   0.99007875   0.48963275
 O    3.86626939   9.68796754  10.83050275   1.01700455   0.96736556  -0.06193694
 O    7.87699081   1.81969770   2.50747688  -1.09485280   0.70389879  -1.37201725
 O    7.67617438   1.95809774   6.72825646   1.35986688  -0.12805071   1.21101699
 O    7.77595633   1.97957825  10.92469849   0.54760304   0.36199346  -0.84926948
 O    7.72332615   6.07508623   2.56428109  -0.54526420  -1.78295208  -0.77809343
 O    7.69664818   5.68387171   6.78625759   2.74986150   1.00086964  -1.63972347
 O    7.78900852   5.70836066  10.74212957   0.58032006   0.31472015  -0.12234446
 O    7.76673200   9.77325746   2.41563760   0.89601063  -0.44115648   0.94100770
 O    7.76161648   9.64900997   6.61853806   0.40851101   0.78163077   0.17000237
 O    7.76519851   9.52091122  10.78364801   0.50011060   0.82637294  -0.53112379
 O   11.65140322   1.91727892   2.63546090   0.28601450   0.61539828  -0.33085506
 O   11.58958383   1.92096631   6.64199036   1.67323649   0.08354555   0.28410944
 O   11.61352260   1.87528949  10.93580748   1.76530564   0.71968935  -0.41101979
 O   11.68266994   5.91611875   2.37374512   1.70278734  -0.49204315   0.78539170
 O   11.61569992   5.82796087   6.56528723  -1.39031213  -1.00911151   0.62926589
 O    0.02680674   5.78116028  10.79387177  -1.32150175   0.27731203   0.69551830
 O    0.04685912   9.73767122   2.46178166  -0.18002408  -2.62099242  -0.54117681
 O   11.59837504   9.74151079   6.65379756   1.16757169  -0.11036402   0.59462145
 O   11.59691179   9.72584816  10.81723680   3.28967435  -1.07858373  -0.08615719
 O    1.93102176   3.85852001   2.52270031  -1.04642572   1.30028220   0.80503264
 O    1.90278689   3.90225363   6.57588503  -0.23302600  -0.86603047   0.81929826
 O    1.84507631   3.88724654  11.00529164   0.95256778  -2.08926043  -1.34032880
 O    1.96897261   7.82652625   2.70283798   0.13072048  -0.67807757  -1.41186708
 O    1.77960465   7.76236566   6.65544334   0.16927343  -0.13218282   0.04734487
 O    2.04490943   7.71675908  10.88799270  -1.80047330   0.12081504  -0.54626145
 O    1.82316268  11.66975822   2.40545124   1.28277440  -0.73459000   0.48204827
 O    1.97946119  11.59586995   6.79678058  -1.03298741   0.59600330   0.23707314
 O    1.76718458  11.56452128  10.84911748   1.25413136   2.75975799  -1.75440295
 O    5.67647352   3.86710051   2.41267021   1.81665740   0.79874951   1.00444276
 O    5.68753569   3.83652444   6.76872758  -0.34383275   0.69774981  -1.43904778
 O    5.76014801   3.84642772  10.90134593   0.34499099   0.46776029  -0.55422158
 O    5.70140730   7.83447462   2.50549447   0.13483471   0.23729674   0.35250839
 O    5.84551987   7.78731115   6.63170426   0.35471308  -0.60937452   0.80034153
 O    5.85116216   7.68858274  10.80239988  -0.11901284   0.73545756  -0.61329645
 O    5.84842295  11.69427059   2.52141611  -0.87467928   0.17772548  -0.31644186
 O    5.82984553  11.70089618   6.75770587  -0.80730441  -1.08229548   0.52045812
 O    5.99493525  11.63718043  10.88704513  -0.84387180   0.85764997  -1.50497820
 O    9.67066607   3.93514749   2.45558507  -0.17615581  -1.27828006   0.34216917
 O    9.63726886   3.83638397   6.61211704   0.27094840   3.56947727  -0.06775946
 O    9.77317552   3.92532616  11.00936868   0.66998328  -1.36169145  -0.92930006
 O    9.77251998   7.76731730   2.48265310   0.24746602   2.40993279   0.31121859
 O    9.75237395   7.76556140   6.64135450  -1.32741371  -0.44188094  -0.23927783
 O    9.88579894   7.72039965  10.66844369  -0.70602745  -1.24932845   0.50933630
 O    9.99583534  11.55103597   2.39535216  -2.47610470   3.17681049   0.21905106
 O    9.68237207  11.68701287   6.68575304  -0.81882423   0.49425231  -0.06526409
 O    9.68066300  11.65463407  10.64974169  -0.53010865   1.47719825   1.31894378
