# total energy = -399027.77063231
CRSYTAL
PRIMVEC
 11.70600000   0.00000000   0.00000000
  0.00000000  11.70600000   0.00000000
  0.00000000   0.00000000  12.46800000
PRIMCOORD
135 1
Pb    3.99288148   3.91844303   4.18290179   0.48531875   0.15568391  -0.54841665
Pb    3.74062889   3.94816456   8.30967264   1.49531291  -1.15650982  -0.47588854
Pb    3.84536247   3.88396886   0.00427652   0.73039715   0.36763899   0.66388320
Pb    3.91517705   7.94444078   4.32339121   1.32757930  -1.28311727  -0.75897110
Pb    3.81878985   7.83891119   8.32313808   0.45890990  -0.10483351   0.34155089
Pb    3.93972454   7.60794011  12.38633460  -0.17501476   1.03692692   0.23976456
Pb    3.90523866  11.61993749   4.09406729   0.97984852   1.46101348   0.79331330
Pb    3.58132193  11.68497602   8.54346011   1.41220523   0.21195508  -0.75188241
Pb    4.12477298   0.02877335  12.37053764  -1.92093376  -0.72632890   1.05864739
Pb    8.05021620   3.94502735   4.28557577  -1.70765824  -0.24794916  -1.45410655
Pb    7.75380857   3.87673455   8.24203374  -0.82966021   0.20833589   1.05087442
Pb    7.86770795   4.02947444  12.46278838  -0.64520990  -0.44632025   0.07803441
Pb    7.75363298   7.98015579   4.14405150  -0.20380255  -0.43698093  -0.18008804
Pb    7.65600494   7.86215931   8.31550766   0.97393593  -0.14397634  -0.39090444
Pb    7.74842381   7.74427989  12.45647957   0.44902529  -0.10370552   0.73480219
Pb    7.78419735   0.06659543   4.06953026  -0.21507709  -0.57382582   0.47870584
Pb    7.76886249  11.62624702   8.41598728  -0.06267023   0.56490882  -0.59291610
Pb    8.01419684  11.69290099  12.39271822  -1.29913365  -0.14499742   1.89224755
Pb    0.20074619   3.94609260   4.36498446   0.09799608   0.04997902  -1.27606065
Pb   11.61292559   3.85926920   8.17342234   0.54774307   0.81601742   0.72732325
Pb    0.10480382   3.91425228   0.11211226  -0.86531216  -0.10816937   0.43092935
Pb    0.08758429   7.82108296   4.12821714  -1.09661947  -0.48040050   0.57923589
Pb   11.47307401   7.72301009   8.25318013   0.62282653   0.38607707   0.27625047
Pb   11.63325892   7.73624957  12.44710363   0.37990253   0.59171861  -0.17874622
Pb    0.09162286  11.44488596   3.99523345  -1.61122317   1.81642101   2.11584604
Pb   11.43810819  11.65417754   8.27067274   1.18219697  -0.37530504   0.83507028
Pb    0.18724918   0.11313849   0.13500350  -0.84426527  -1.67341762   0.40063401
Ti    1.94455390   1.92693637   2.30795148   1.63564869   0.93492140   0.31435619
Ti    1.96907797   1.87575773   6.38379055   0.35410846  -0.44630422   0.40314660
Ti    1.76135500   1.87351018  10.52352812   3.14408584   0.28355834   0.68738922
Ti    2.04935771   5.87359085   2.30350040   0.88725182  -0.31184896   1.60457819
Ti    2.01943718   5.86812415   6.43676708  -2.99898685  -0.72915155  -2.38610908
Ti    1.84199763   5.74853566  10.47688534   1.90012209   2.56290403   1.38938883
Ti    2.03979391   9.71180096   2.08661954  -3.13170468  -0.37262139   0.26083818
Ti    1.91609661   9.67157914   6.40160732  -0.90753959   1.10491634   0.97269567
Ti    1.87226935   9.67310092  10.51928900   1.09072292  -1.22844454   2.50772878
Ti    5.92835152   1.97881736   2.18305952  -0.66965680   1.04494580   5.34538643
Ti    5.82797257   1.87402525   6.37461410  -1.31245034   1.28259337  -0.60572493
Ti    5.77440592   2.02122820  10.53585898   0.99908314  -0.90173927  -0.12127222
Ti    5.93845380   5.90306656   2.25582277  -2.09913469  -0.71802669   1.67312359
Ti    5.89096256   5.83638919   6.34763335  -0.90499493   0.92401572  -0.34817984
Ti    5.81907601   5.84354155  10.38412342   0.72248519   0.07142685   2.51215520
Ti    5.75896570   9.78442498   2.13028248   3.64318637  -1.18692811   0.16658959
Ti    5.78820729   9.83349653   6.45438437   0.54807451  -1.79917506  -2.58139023
Ti    5.91506521   9.75215154  10.54554661  -1.52469410  -1.09700972   0.37535315
Ti    9.84815245   1.94750381   2.22541332  -1.84266413  -0.34059932  -0.83998853
Ti    9.73208746   2.01136004   6.42492248  -0.99901364  -2.45578781  -2.88963603
Ti    9.71099324   1.97131381  10.59200238  -1.40327219  -0.21301357  -0.95252017
Ti    9.85546870   5.89923870   2.19354511  -1.34140919   0.08930896   2.01937890
Ti    9.69002780   5.90504488   6.28858490   1.38831965   1.26652353   2.32071777
Ti    9.77964893   5.80965268  10.42541743  -2.27695606   1.11020346  -1.88422867
Ti    9.74917822   9.70848816   2.14478276  -1.32635508   0.05528217   0.17653835
Ti    9.72219589   9.82490433   6.26190338  -0.79327053  -2.71099674   0.95490445
Ti    9.76267523   9.69760158  10.55502229  -0.40656264  -0.41930731  -1.27506097
 O    1.86668558   1.82121948   0.50641276  -0.44486616   0.85927661  -1.89400101
 O    1.89612617   1.87106363   4.60767408  -0.28760520   0.09787847  -0.71731568
 O    1.84082703   2.04826906   8.75798452   0.22526642  -0.69585181  -0.85191528
 O    2.11383436   5.85849011   0.53031391  -0.90629934  -0.40769597  -2.41746825
 O    1.83003410   5.73686477   4.61110278   0.43780420   0.44717560  -0.52102415
 O    1.89577499   5.80022935   8.71624165   0.14673484  -0.59583497  -1.76789608
 O    1.84329700   9.75464492   0.32762164   0.23244065  -0.65811495   0.28507658
 O    1.94790181   9.77229757   4.60864658  -0.40284722   0.11126465  -0.45108347
 O    2.04850318   9.53550860   8.76072748  -0.47993541   0.85288289  -2.20172826
 O    5.80631647   1.85881915   0.48338436  -0.34658141   0.17338426  -4.64512423
 O    5.99729986   1.83629681   4.56426050  -1.47448521   0.39650696   1.12854531
 O    5.76258286   1.99395322   8.77111332   0.02818904  -0.50546218   0.03184565
 O    5.76088549   5.86910746   0.47427025   0.51959679  -0.01805852  -2.03325156
 O    5.81799906   5.87266608   4.56346255   0.06614508  -0.66773761   0.76851357
 O    5.80144678   5.82902611   8.61877930  -0.22411170   0.00933398  -0.09437689
 O    5.85353848   9.63924717   0.33924181  -0.53309524   0.50409362   0.57666450
 O    5.68583832   9.80204251   4.58972016   0.21932710   0.28648791   0.69073576
 O    5.85627768   9.67784185   8.70551917  -0.27682248   0.34121410   0.44103314
 O    9.74362957   1.83657775   0.36510044   0.42441802   0.53364053   1.17305010
 O    9.49077997   2.05299828   4.58410956   1.72467965  -0.98920923   1.95314294
 O    9.78293832   1.94327794   8.73929498  -0.60755858   0.24689602   0.81848724
 O    9.71925768   5.95266488   0.40786568   0.27787563  -0.83998853  -0.89042730
 O    9.51306820   5.94116959   4.52425069   1.47026727  -1.10750911  -1.35743092
 O    9.71406022   5.76858803   8.57317135   0.75282864  -0.28461149   3.30010119
 O    9.56224510   9.56264311   0.36074911   1.88840383   0.41195133  -1.64158800
 O    9.81120831   9.59380448   4.49153466  -0.78212963   1.26651284   0.58523401
 O    9.65259201   9.70317364   8.73226303  -0.01449279   0.14522729  -0.80798785
 O    3.83684050   1.91709162   2.56127630   0.35613457  -0.54481350   0.13270180
 O    3.83919341   1.80019550   6.67180135  -0.87218167   0.63252937   0.51711094
 O    3.81085318   1.81777792  10.80157699   0.30653511   0.26560674   0.34226725
 O    3.88772648   5.80052200   2.68374947  -0.98573972   0.87861281  -0.10169546
 O    3.83909976   5.88755611   6.60504768   1.60491499  -0.06008281   0.91345752
 O    3.92420238   5.78526908  10.77903485  -0.44727717  -0.56320882  -0.30691467
 O    3.84773879   9.79479650   2.51469586   0.59041421   0.51649081  -0.56100095
 O    3.81332315   9.55697740   6.60371360   0.36624905   0.59097018   1.12948619
 O    3.83790575   9.70562019  10.87572419   2.02531822   0.33279428  -0.67169359
 O    7.79885326   1.79536093   2.57117590   0.95071325   1.79191530  -1.94398537
 O    7.63363478   1.95789874   6.75219502   3.89634246  -0.46761840   0.83794104
 O    7.71966217   1.87217570  10.90351536   2.01462637   1.28922766  -0.74084308
 O    7.72995175   6.06264275   2.63013707   2.09372997  -1.69411168  -1.62363640
 O    7.77098128   5.75997242   6.69379490  -0.93504970  -0.18650849  -0.26291774
 O    7.84849841   5.76556789  10.70145895  -1.17848156  -0.46866620   0.71520404
 O    7.78048655   9.81872356   2.35854662  -1.01684764  -0.80331017   1.68494877
 O    7.73328796   9.58654676   6.61977239   1.47389181   1.87212016   0.06958785
 O    7.81040708   9.44148601  10.80399578  -0.83140833   2.48708818  -0.55356478
 O   11.66086166   1.95515953   2.62158402   0.50603419   0.33278358  -0.09138852
 O   11.65024432   1.87066562   6.69969227  -0.76543966   0.67584737  -0.51759742
 O   11.64758706   1.87140310  10.89634626  -0.81921963   0.36281162   0.02104155
 O    0.02417289   5.91505351   2.50462171  -0.78780700  -0.62448911   0.01438587
 O   11.61786553   5.88993243   6.59009855  -0.41807241  -2.47427401   0.33572919
 O   11.68481214   5.81899407  10.76624268   0.51510087  -0.84666024   1.01044322
 O   11.63970892   9.71799343   2.51872302   2.36871345  -1.50000663  -1.05041467
 O   11.62495936   9.75098094   6.68363348   0.01776984  -0.16194933   0.08833600
 O   11.64364214   9.64766378  10.75742780   1.16997085  -0.08709575   0.62725295
 O    1.92492293   3.87936840   2.50603060  -0.82168944  -0.19004749   0.63512749
 O    1.90343072   3.90290917   6.61855052  -0.39502080  -2.22102169   0.74367107
 O    1.86325573   3.84600630  10.95714023   0.42484034  -0.29895994  -0.43515262
 O    1.94375789   7.85395340   2.64171984   0.51018263  -0.33341440  -1.05401783
 O    1.77286199   7.70135399   6.67989308   0.78042428   2.90282442   0.16086411
 O    2.02208273   7.68352575  10.85157367  -1.25561785  -0.29511088   0.02424375
 O    1.75078448  11.66122455   2.42526289   1.47079117  -0.78472240   0.24052368
 O    1.94182640  11.60235508   6.88273498  -0.90810091   0.55169905  -0.77934975
 O    1.84079191  11.60316279  10.80499322   0.32851754   1.94373946  -1.02491998
 O    5.71120522   3.95106765   2.47239193   1.45818549  -2.27514914   0.15732511
 O    5.66559865   3.84837091   6.77418857   0.39936168   0.70815277  -1.13771891
 O    5.79802862   3.85176565  10.95348710   0.34622323   1.35148625  -0.76480884
 O    5.70033035   7.81671662   2.55671302   0.00485944   2.35587790   0.02450036
 O    5.85420572   7.82596436   6.55857944  -0.58429313  -2.27278090   1.20145833
 O    5.97533941   7.74354241  10.80334745  -2.40276162  -1.62093137  -0.79639789
 O    5.86991517   0.00093648   2.57848214  -1.70197553  -1.18357088  -0.96318528
 O    5.80763925  11.66427982   6.77574707  -0.15406944   0.27314983   0.34495090
 O    5.95588403  11.63188931  10.92994752  -0.29779453  -0.10330992  -1.58553602
 O    9.74393393   3.89915154   2.47643156  -0.71579744   0.64244606  -0.08626713
 O    9.61697065   3.84689596   6.69546562   0.94150223   0.65828602  -0.85681215
 O    9.74977522   3.86598844  10.99077889   0.65510520  -0.23050008  -1.01057687
 O    9.76057986   7.79400698   2.50179148   0.07179572  -0.27829796   0.13399016
 O    9.74847586   7.73496191   6.66347273  -1.17575514   2.02819432  -0.26950392
 O    9.84647849   7.71965047  10.71393942  -0.32191533  -1.49002580   0.44754447
 O    9.88852644  11.64501174   2.38537776  -0.99109099   1.13921042   0.92002232
 O    9.67648396  11.67669988   6.69059063  -0.97370071   0.80124664  -0.31625934
 O    9.63176704  11.61783041  10.68047531   0.43468753   1.30136825   0.68294141
