# total energy = -399028.26860067
CRSYTAL
PRIMVEC
 11.70600000   0.00000000   0.00000000
  0.00000000  11.70600000   0.00000000
  0.00000000   0.00000000  12.46800000
PRIMCOORD
135 1
Pb    3.98831614   3.92625093   4.17857539   0.56176594   0.34059149   0.30968615
Pb    3.73450665   3.95873508   8.30961030   2.09988199  -1.48035440  -0.03960899
Pb    3.84786755   3.90056797  12.45532004   0.71786876   0.00229432   0.12602048
Pb    3.91235591   7.95385241   4.31416489   0.73768684  -0.91048653  -0.62728789
Pb    3.79296641   7.82061472   8.30894950   0.05129797   0.33916288  -0.10953324
Pb    3.93230293   7.61709420  12.38384100  -0.65530884   0.81728138   0.25114420
Pb    3.92300837  11.61026833   4.08970349  -0.30722879   1.35301012   1.52240911
Pb    3.56987347  11.68070333   8.53846044   1.55336879   0.32021439  -0.75519507
Pb    4.12138995   0.02611609  12.36031388  -2.04877036  -0.23761123   1.40277855
Pb    8.05493372   3.95788054   4.27504031  -1.92535476  -0.20454745  -1.24633799
Pb    7.74862282   3.88911950   8.23949027  -0.76696170  -0.13739889   0.63842562
Pb    7.88451777   4.04487953  12.45815028  -0.45939516  -0.85030245  -0.21771939
Pb    7.75677019   7.95594778   4.15943701   0.25033284  -0.64272698  -0.02410779
Pb    7.65280921   7.87192211   8.33105526   0.89795902  -0.55148616  -0.41958819
Pb    7.75998934   7.75551765  12.45063208   0.89625090  -0.68970806   0.23210254
Pb    7.78636296   0.05536938   4.07997845   0.21691967   0.09601579  -0.46027252
Pb    7.78741650  11.60447386   8.40523986  -0.65983536   1.51802234  -0.49273069
Pb    8.00167142  11.68353619  12.39786750  -1.56972405   0.77590604   2.53933485
Pb    0.17267521   3.95404097   4.36611905  -0.01358344  -0.40017773  -1.65433037
Pb   11.61490391   3.86527438   8.16950738  -0.01355238   0.01188697   1.47443809
Pb    0.10499111   3.91057660   0.09403366  -0.94578252  -0.34075454  -0.12123774
Pb    0.08992549   7.82941763   4.12266888  -0.80789060  -0.58978300   0.50874820
Pb   11.48232175   7.72276426   8.25750653   1.27244894   0.72144416   0.55035259
Pb   11.63193614   7.74824822  12.43214203   0.64618980   0.14179342   0.09796072
Pb    0.07791514  11.44552979   4.03469467  -0.84861763   1.71090022   1.14201064
Pb   11.44352807  11.65779469   8.28021076   1.81587200   0.18280773   0.58441795
Pb    0.18573910   0.09984047   0.11980501  -0.52067011  -0.57326858   0.20538598
Ti    1.98596972   1.94897876   2.32752624  -0.93611222   0.03671683  -0.79089868
Ti    1.97537579   1.90483544   6.43750270   0.00830768  -1.87799712  -2.51276581
Ti    1.77527343   1.88149367  10.52997408   1.87400245   1.14239885  -0.64407406
Ti    2.06813414   5.87846055   2.31297608  -0.64445451  -0.03537751   1.17401849
Ti    1.98352317   5.85395989   6.44786360  -0.80725005   0.58338919  -1.62918217
Ti    1.84371841   5.75081833  10.45506634   0.44655320   1.64129042  -0.90985375
Ti    2.04894800   9.71150831   2.09321512  -3.10242458   0.10930419   0.95971535
Ti    1.90368825   9.69788252   6.38592258  -0.23200160   1.24028581   2.30981778
Ti    1.91233898   9.69106963  10.54520998   0.69567095  -0.88165423  -1.29101699
Ti    5.85235617   1.94856905   2.23603606   2.24919503   1.41393956  -0.56755414
Ti    5.82060950   1.85640772   6.33723504  -0.25173816   2.05009027   3.88170415
Ti    5.80669106   1.99057018  10.59895952   0.23449391   0.35577824  -3.05506305
Ti    5.95211470   5.91396485   2.26260536  -1.60798595  -1.50007155   1.30313688
Ti    5.90482246   5.86186144   6.32046558  -0.67656329  -0.82370624   0.09117482
Ti    5.79914069   5.85415889  10.39782575   1.19154226  -1.09546823   1.71669230
Ti    5.79771256   9.79060575   2.12186658   1.64094491  -0.84937075   2.66737790
Ti    5.83499617   9.83930271   6.41572110  -0.90399567  -1.81084469  -0.40399382
Ti    5.92100015   9.73669962  10.54805268  -2.22784740   0.06709420  -0.39321714
Ti    9.86642551   1.93700353   2.22636089  -1.95307679   0.47004374  -1.53843438
Ti    9.72254707   1.96488722   6.39911372  -0.47886774  -0.18925588   0.00544269
Ti    9.66294011   1.94069092  10.57038287   0.56038780   1.29223597   0.32502042
Ti    9.84586978   5.87380156   2.21681040  -0.01682499  -0.32508641   1.75128174
Ti    9.70912028   5.92042656   6.30489305   0.44726751  -0.00023293   2.66282420
Ti    9.76801317   5.85523585  10.38953453  -1.74172403  -1.70611360   0.62080868
Ti    9.73953247   9.67411934   2.14903435  -0.39263870   0.62404635   0.70410674
Ti    9.73225134   9.76960519   6.30110278  -0.16300518  -1.24828292   0.31034223
Ti    9.75334555   9.73001549  10.54218025   0.86645584  -1.24966106  -1.45786932
 O    1.79787772   1.79285584   0.46620346   0.58389775   1.13370296   0.72814077
 O    1.94894365   1.84915000   4.55116910  -0.61530388   0.30586618   2.16513608
 O    1.82079806   2.03382385   8.73754946   0.93137219  -0.68121016  -0.58349013
 O    2.04625562   5.83343927   0.54053767  -0.38018883  -0.39194769  -2.55082584
 O    1.91231557   5.75731516   4.61691287   0.18509816   0.18553296   0.56330325
 O    1.86922579   5.78466037   8.62295608   0.17366152  -0.42702628   1.53876436
 O    1.85737931   9.72793183   0.34523892   0.17781924  -0.10911785  -1.93660895
 O    1.94659074   9.71216384   4.58841102  -0.58682096   0.52679217  -0.78779300
 O    1.91369688   9.58460356   8.70538202   0.91472578   0.40503811   1.91916283
 O    5.89367835   1.84126015   0.42720355  -0.87212758   0.46636352   0.55770139
 O    5.89644097   1.87624939   4.58208974  -0.39299974  -0.17473686  -1.15942182
 O    5.78734105   1.92934780   8.78182333   0.21269208   0.09863232   2.01908012
 O    5.71756158   5.82167474   0.46125366   0.73295457   0.82166814  -0.13857905
 O    5.87150719   5.71367519   4.53426250  -0.34137179   0.96430398   0.44407643
 O    5.82858128   5.84935943   8.63325464  -0.07556881   0.02897982   0.08722673
 O    5.71545450   9.61509769   0.39330306   0.84192878   0.18296301  -2.49565354
 O    5.67611063   9.84236968   4.61200048   0.58648710  -0.20751725  -0.26831081
 O    5.86000019   9.73676986   8.73151495   0.01470537  -0.63665150   0.07617442
 O    9.70714197   1.78381881   0.36481368   0.75898011   0.94954038   1.31321868
 O    9.58232089   2.11549661   4.62414431   1.01492646  -1.45856810  -0.34182600
 O    9.77221562   1.88372952   8.77949182  -0.49621293   0.28343545  -1.17094387
 O    9.81318662   5.94742060   0.43059485  -0.35003274  -0.84890102  -0.15416953
 O    9.57327215   5.94260943   4.55888680   1.25872575  -0.79731189  -2.77693443
 O    9.72409226   5.75373312   8.60583751   0.30223642   0.57342774   0.63997069
 O    9.60692690   9.51854660   0.36644699   1.41298457   0.87852138  -1.58713523
 O    9.81651113   9.59592326   4.51580986  -1.04664316   1.34147254   0.57006585
 O    9.64999328   9.62332701   8.70828707   0.10203692   0.71833461   0.92846450
 O    3.86423254   1.85177214   2.59868030   0.18974891   0.53835692  -0.85817534
 O    3.87558736   1.79167354   6.69958006  -1.14823363   0.61620452   0.09716877
 O    3.86048662   1.86022387  10.85526420   0.35070046   0.48972207   0.29425095
 O    3.89655281   5.84753330   2.69778844   0.22142290   0.43525631  -0.48934162
 O    3.88132330   5.82039879   6.70300876  -1.25917995   0.74699221  -0.20199691
 O    3.84686084   5.78724740  10.75706623   0.97644716  -0.38475417  -0.19488880
 O    3.82641046   9.87075673   2.49893630   1.94183036  -0.61721775  -0.23339527
 O    3.78548628   9.60791021   6.63854920   1.44591636   0.23513445   0.73557886
 O    3.88824155   9.73514272  10.89107230   0.43178961  -0.82853168  -1.10760365
 O    7.75231021   1.84317994   2.55797228   0.17005894   1.19059502  -0.20793263
 O    7.73500874   1.93797512   6.80677992   0.13815979  -0.53059662  -0.66237036
 O    7.74306247   1.81962746  10.85225941   0.88604100   1.17839361  -0.10382268
 O    7.80664946   5.98057199   2.62539923  -0.04673263  -0.55099702  -1.83148965
 O    7.81164792   5.82917829   6.59163211  -2.31053209  -0.55397458   0.93735449
 O    7.85886992   5.80314415  10.69179625  -1.82640799  -0.64151576   1.20324288
 O    7.76035223   9.82943455   2.37213674  -0.30186374  -0.77549842   1.34056413
 O    7.76039905   9.60172944   6.62352526   0.13097791   1.53216480  -0.10063160
 O    7.82603459   9.46440635  10.80200090  -0.24472710   2.07612359   0.03205444
 O   11.69052467   2.00427791   2.60344308   0.25906755  -0.51019234  -0.03252805
 O   11.68314989   1.84895099   6.73464007  -1.52179962   0.71751549  -0.95241313
 O   11.65531302   1.88178632  10.85957813  -0.92024611  -0.39102764   0.63121657
 O    0.04474033   5.88870330   2.63423904  -1.44251564  -0.23488212  -0.49080129
 O   11.60556252   5.85256688   6.62776438   1.42081475  -1.34704723  -0.26072909
 O   11.65891847   5.82169816  10.78096739   1.88814879  -1.21971460   0.64643049
 O   11.61868495   9.63841604   2.53035566   1.24254518   0.91368538  -0.94917158
 O   11.65046674   9.75305290   6.71588820  -1.35663988  -0.22190040  -0.57515916
 O    0.02999077   9.56808640  10.72506088  -2.23592215   0.96709520   0.85707671
 O    1.88763932   3.89403602   2.51711465   0.55145122  -1.00266293   0.30808673
 O    1.88926646   3.82360102   6.68722427   0.01020214   0.50006008  -0.60369254
 O    1.90080857   3.79691134  10.89144634   0.18920542   2.37210984   0.51192376
 O    1.94031632   7.86045023   2.53964432   0.59553626  -1.21878290   0.17724469
 O    1.79821719   7.74330829   6.70736009   0.78527353   0.09477740  -0.47468673
 O    1.94883829   7.64474377  10.81554115   0.28155651   0.79292901   0.20775794
 O    1.74100997  11.62480718   2.45523596   0.79403929   0.60533466   0.00236031
 O    1.86825419  11.63158496   6.93330518  -0.09583333   0.23883797  -1.58240296
 O    1.92855179   0.00264556  10.71957496  -0.17155743  -2.74098625   0.30733749
 O    5.80464251   3.94776656   2.53761204   0.03720986  -1.74525674  -0.66801104
 O    5.66195808   3.88348891   6.73028874   1.20559155  -0.96770469  -0.67942051
 O    5.84875072   3.90765010  10.97087996   0.03426335   0.11115207  -0.91957839
 O    5.70294079   7.88133374   2.60798143   0.65117053  -0.43908017  -0.17077713
 O    5.84080235   7.77932765   6.53656096  -0.65773126  -0.22010299   0.80681137
 O    5.99993371   7.73841518  10.77357386  -2.58835014  -0.97169548   0.03550562
 O    5.82455442  11.67947420   2.59576279  -0.55093490   0.11559318  -0.74086627
 O    5.77975556  11.63894803   6.80560793   0.65048728   1.14521725  -0.53612860
 O    5.90649642  11.62374194  10.90508633   0.59981044  -0.57243005  -0.96218047
 O    9.78498687   3.88901414   2.49485927  -0.98324083   1.74920871  -0.09110106
 O    9.63522031   3.89382531   6.74109850   0.84208018  -1.03329264  -1.23453255
 O    9.75264319   3.80065726  10.93173044  -0.05773448   1.54532121  -0.32589001
 O    9.75023176   7.81710292   2.52681475  -0.52415235  -0.90523794   0.01899508
 O    9.69743770   7.78077920   6.67393338  -0.02029946   1.22220690  -0.09955238
 O    9.79393025   7.66993508  10.77657865   0.00326872   2.02377745   0.05932614
 O    9.74117131   0.07056377   2.41560019   0.60967096  -3.31636281   1.46963206
 O    9.63248110  11.69347458   6.68197524  -0.04842910  -0.79923741  -0.41422702
 O    9.60345022  11.62617679  10.73895023   1.47715944  -1.70087666  -0.23006444
