# total energy = -399027.70532498
CRSYTAL
PRIMVEC
 11.70600000   0.00000000   0.00000000
  0.00000000  11.70600000   0.00000000
  0.00000000   0.00000000  12.46800000
PRIMCOORD
135 1
Pb    3.98583447   3.93464413   4.17530878   0.75159525  -0.20623553   0.79180756
Pb    3.73538460   3.96408472   8.30941081   1.91365271  -1.23379841   0.41272217
Pb    3.85259678   3.91659348  12.43954802   0.57294072  -0.09858614  -0.30210037
Pb    3.91212179   7.95983417   4.30326786   0.17948378  -0.34306016  -0.61861316
Pb    3.76878182   7.80400390   8.29524716   0.59815662   0.13341423   0.13518367
Pb    3.92313713   7.62861290  12.38227003  -0.72627423   0.72581289   0.18585491
Pb    3.93916265  11.60546887   4.09052638  -1.12426863   1.08155108   1.74021304
Pb    3.56414923  11.67763636   8.53112926   1.80576973   0.17216077  -0.86334996
Pb    4.11156862   0.02260429  12.35516460  -1.36264598  -0.21591195   1.62810210
Pb    8.05317782   3.96928219   4.26078938  -1.54507297  -0.78203187  -0.97113951
Pb    7.74114268   3.90040408   8.23921597  -0.60615120  -0.71733946   0.24098186
Pb    7.89891615   4.05692501  12.45323789  -0.60427081  -0.86885682   0.12167055
Pb    7.76069170   7.93073306   4.17388742   0.79964446  -0.75533851  -0.29592194
Pb    7.65248144   7.87964807   8.34469525  -0.02592835  -0.27734580   0.04262995
Pb    7.77386095   7.76419180  12.44570722   0.85416408  -0.37102658  -0.52750770
Pb    7.78909046   0.04497445   4.08876839   0.38234395   0.81508468  -0.34433906
Pb    7.80305572  11.58851858   8.39335786  -0.98830828   1.65382607  -0.31338854
Pb    7.98442848  11.67686377  12.41085916  -1.77910557   0.69711067   1.83067029
Pb    0.14564605   3.96025686   4.36181759  -0.60492486  -1.14249439  -1.49291260
Pb   11.61690563   3.87089326   8.17069184  -0.04588268  -1.25988443   2.09257587
Pb    0.10205291   3.90626879   0.07642884  -0.78567002   0.36352254  -0.35715724
Pb    0.08937531   7.83543451   4.11902822  -0.83764936  -0.56582794   0.34382516
Pb   11.49549100   7.72504693   8.26364078   2.13727308   1.45770493   1.27106750
Pb   11.63277897   7.76017664  12.41812800   0.74673661  -0.27213677   0.26840519
Pb    0.06188962  11.45186274   4.07641260  -0.39474168   1.81352488   0.64992574
Pb   11.45442635  11.66192691   8.29128234   1.30850594   0.81312838   0.34587490
Pb    0.18250825   0.08495044   0.10584085  -0.35674262  -0.17991592  -0.25725132
Ti    2.01377147   1.97069339   2.33560550  -2.26452057  -0.82410705  -1.46648787
Ti    1.98063179   1.90679034   6.45551896  -1.04580032  -2.07471801  -2.64218107
Ti    1.81478118   1.90484714  10.52776724  -0.00705438   1.34245807  -1.24674506
Ti    2.07670293   5.88158605   2.33382258  -2.02351535  -0.44578666  -3.20357666
Ti    1.93721423   5.84711188   6.43685436   1.21466749   0.74293495   0.38067963
Ti    1.85303639   5.77665347  10.42530522  -0.05538974   0.71929576  -0.08373574
Ti    2.01688527   9.71311203   2.10898714  -0.29818775   0.71055954  -1.14345795
Ti    1.88897381   9.74052748   6.40046027   0.78023324   0.98822652   0.87251248
Ti    1.95865963   9.69490920  10.55653092  -0.97550762  -0.88906225  -1.43085390
Ti    5.81102228   1.93981297   2.28456151   4.14623585   1.30624013  -3.79145537
Ti    5.80843526   1.86764548   6.34905470  -0.03095051   1.57229774   2.55247714
Ti    5.84137594   1.96540228  10.62165128  -0.25757251   0.94002548  -0.77345916
Ti    5.94280843   5.90270368   2.28620729  -0.36028733  -2.03784602  -0.50023621
Ti    5.90626230   5.87430492   6.29680132  -1.75459627  -2.29739819   1.27693057
Ti    5.79561719   5.84907849  10.43424478   0.39526141  -1.73256884  -0.26396700
Ti    5.85676933   9.78449522   2.14256346  -1.45604645  -0.33042885  -0.91782287
Ti    5.86803050   9.82131059   6.37477619  -1.38299740   0.02888909   2.73690132
Ti    5.89666338   9.72147011  10.54653158  -1.35938741   0.24546093  -0.08238676
Ti    9.85683830   1.93348002   2.20870620  -1.14658804   1.11870922   0.71911473
Ti    9.70826575   1.91492601   6.37501308   0.98827908  -0.02505824   2.21341134
Ti    9.62603110   1.92831767  10.55191776   3.05403896   1.49339729  -0.24796033
Ti    9.83615380   5.84492286   2.26173260   0.78930816  -0.54243402  -0.51750426
Ti    9.73296541   5.93443864   6.35142362  -1.01555641  -1.68181000  -2.12556444
Ti    9.73309417   5.87781672  10.37050836  -0.18063420  -2.11546757   5.83913548
Ti    9.72505215   9.64909192   2.15995632   0.79291127   0.36903523  -1.11386809
Ti    9.73868964   9.70252981   6.34304513  -0.23278290   2.78351980  -0.39485847
Ti    9.75630717   9.74326669  10.51202016   1.40308019  -1.74797402   0.64918993
 O    1.75653212   1.81261557   0.45069326   1.37457068   0.86666108   1.32579151
 O    1.97461490   1.84052267   4.57700280  -0.54079306   0.29054356   1.18928806
 O    1.83905942   1.99143643   8.70027014   0.89525235  -0.45374620   1.37198953
 O    1.96661971   5.79273751   0.45994452   0.34392444  -0.32731628   2.30303936
 O    1.99837808   5.78583097   4.63696141  -0.21107082   0.16993584  -0.63820542
 O    1.85119855   5.75287858   8.58557701   0.16945698   0.13928315   1.29072983
 O    1.87983142   9.69768352   0.29960604   0.36206261   0.40340782   0.55220387
 O    1.92178573   9.67557089   4.54477302  -0.31596386   0.48226155   1.14644788
 O    1.82185160   9.64860026   8.71548110   1.61780668  -0.10016287   1.33785053
 O    5.94052576   1.84161133   0.37882771  -1.12415183   0.13594283   2.81609959
 O    5.78126563   1.90743417   4.56621798   0.34204405  -0.59248626   0.26420059
 O    5.81967302   1.87173087   8.85968599   0.24049133   0.64566274  -1.11661276
 O    5.70744760   5.80961756   0.44418497   0.87216794   1.04798437   2.30960904
 O    5.90834597   5.60128588   4.52180696  -0.64646862   2.08495504  -0.72070314
 O    5.85177087   5.86872116   8.64877730   0.16680575  -0.28103066  -0.07422283
 O    5.62056566   9.60186991   0.36561163   2.23814256   0.23433042   0.44025061
 O    5.69112943   9.87164639   4.61885788   0.71455391  -0.76507332  -1.55558447
 O    5.86433141   9.76638604   8.75388254   0.33479696  -1.39979827  -1.46084086
 O    9.70334923   1.77206599   0.41492257   0.62159142   0.74612927  -0.23868685
 O    9.71219896   2.11679598   4.64216057  -0.15728116  -0.92982933  -3.00697082
 O    9.74128837   1.83882530   8.77567661  -0.17019278   0.28873909  -1.09620878
 O    9.88829232   5.90701148   0.44507020  -0.84152109  -0.49301247   0.50715044
 O    9.68230184   5.91112029   4.50342913   0.37360773  -0.15108522   2.94792542
 O    9.74629854   5.76199756   8.65029840  -0.26070260   1.00505076  -3.80070549
 O    9.70729415   9.51414515   0.31871948   0.10160528   1.24408799   2.10378229
 O    9.77916899   9.65241642   4.55580720  -0.62039428   0.50737235  -1.16670003
 O    9.65162041   9.57563677   8.71235164   0.16339535   0.70470231  -0.44518517
 O    3.89299418   1.81100014   2.60066272  -1.15197810   1.20385233  -0.97690915
 O    3.86726440   1.80963054   6.73177243   0.20992040   0.46383140   0.00749820
 O    3.91705001   1.92050977  10.91715535  -0.98414456   0.30464648  -0.30372381
 O    3.91147796   5.90970386   2.69099338   0.66330453  -0.46179333  -0.61798831
 O    3.87823292   5.78607680   6.78781609  -1.60427605   0.90195635  -1.32796388
 O    3.81274955   5.77293096  10.72838983   1.58449108  -0.10872390   0.12111578
 O    3.87085814   9.91548536   2.47337690  -1.04679307  -1.91464546   0.05394733
 O    3.81130972   9.66785663   6.70169962   0.08677823   0.15722861  -0.14219717
 O    3.95097400   9.73054226  10.85886745  -2.04547853  -1.20389904  -1.20805108
 O    7.72256526   1.93706206   2.53417087   0.98227585  -0.25773602   1.01004372
 O    7.83815030   1.90019986   6.83521943  -3.50750485   0.34447337  -1.05944190
 O    7.79920444   1.81795351  10.80042994  -1.15916679   0.48038700   0.87227889
 O    7.87416967   5.87905756   2.54716253  -3.08060968   0.71639926  -0.77006045
 O    7.77212846   5.87304067   6.53053891   1.13487356  -0.49798792   1.14870201
 O    7.80256406   5.81415949  10.73062160   0.58722467  -0.08424963   0.75042731
 O    7.73315919   9.80640885   2.44165831   1.54707600  -0.67951560   0.58409458
 O    7.78814227   9.67846227   6.62404891  -1.90664504   0.13743780   0.03815089
 O    7.82598777   9.57007642  10.80148972  -0.55703916   0.16953290   0.61126095
 O    0.01831989   2.02962140   2.58465380  -1.26623805  -1.19655852  -0.01405620
 O   11.65476284   1.85806997   6.73031368  -0.64040699   0.42008022  -0.48503542
 O   11.63344621   1.87637815  10.84898033   1.45681145  -0.69253817   0.53712572
 O    0.01478468   5.85434619   2.73789799   1.00328132   0.36811256  -0.80845076
 O   11.64172235   5.76301598   6.65213932   0.16404356   0.87347020  -0.85629558
 O   11.69784092   5.77619693  10.81966806  -0.93917872  -0.40343702  -0.44666846
 O   11.65088815   9.59468243   2.50187875  -0.24866693   1.50865064  -0.47224059
 O   11.62800292   9.74457776   6.72411708   0.07337024  -0.45288192  -0.64709347
 O    0.03747091   9.53193827  10.72865166  -1.72565462   1.49441925   0.50068587
 O    1.87429448   3.87294181   2.54187610   1.47895567   0.17539597   0.23322088
 O    1.87540655   3.76877011   6.72987730   0.26321367   2.76959206  -1.22177442
 O    1.94429636   3.83254440  10.84689817  -0.14456226   0.29386052   0.52842453
 O    1.96163295   7.81931535   2.44849078   0.33127561  -0.78916801   1.10622974
 O    1.85289592   7.79422939   6.71520246  -0.06235652  -1.34762038  -0.61402314
 O    1.88971129   7.64182898  10.78818636   1.40125820   1.66853632  -0.06125282
 O    1.76664611  11.61066634   2.48404951   0.24502879   0.69103736  -0.17492296
 O    1.79396791  11.66465441   6.91619909   0.73420457  -1.19036257  -1.59789323
 O    2.00583481   0.00677777  10.64930531  -0.47934169  -2.17388812   1.20955189
 O    5.89459142   3.87735497   2.57273440  -1.57726151   0.85002956  -1.03385225
 O    5.70723689   3.87842021   6.66127836   1.12625997  -1.68969946   0.33364069
 O    5.89884070   3.96307801  10.95003347  -0.23918907  -1.76926564  -0.53780896
 O    5.73170243   7.92587507   2.65150722   0.90223082  -2.78790542  -0.01379926
 O    5.80094342   7.72798514   6.54891674  -0.32404603   2.28093018   0.07337024
 O    5.91863554   7.69831043  10.74705443  -0.95579856   1.23451669   0.95522627
 O    5.76015971  11.65568761   2.58031494   1.29311828   0.87783247  -0.49326358
 O    5.77949803  11.65731475   6.81190427   0.93503836   0.31831727  -1.11401992
 O    5.88224159  11.59885498  10.84202318   0.74010852   0.75244201   0.19830519
 O    9.78443669   3.93879976   2.50856160  -0.59441336  -0.95769063  -0.07698502
 O    9.68495910   3.90838757   6.73409148  -0.27742171   0.72237914  -0.89014260
 O    9.75363820   3.79921742  10.85972774  -0.58025788   1.78371895   0.02565973
 O    9.71933962   7.80975155   2.55183803  -0.67738410   0.63506949   0.01267219
 O    9.64611859   7.85801539   6.67955645   0.69025484  -3.84379094   0.03093883
 O    9.74289209   7.68910951  10.83648739   0.08683079   0.65289231  -0.87471990
 O    9.62412302   0.07168754   2.50300087   1.61381231  -3.05751359   0.64015589
 O    9.58889966  11.67891232   6.65753796   1.01924127  -1.34476476  -0.07294394
 O    9.63600461  11.58066386  10.78829857   1.39851353   0.09765763  -0.30694149
